$DATA1 SOURCE='HSPICE' VERSION='H-2013.03-SP2 64-BIT'
.TITLE 'ac	simulation'
 gain             unity_gain       phase_margin     temper            
 alter#            
   30.7126         9.276e+08         62.9714          25.0000         
 1                 
