 ****** HSPICE -- H-2013.03-SP2 64-BIT (Aug 26 2013) win64 ******               
  Copyright (C) 2013 Synopsys, Inc. All Rights Reserved.                        
  Unpublished-rights reserved under US copyright laws.
  This program is protected by law and is subject to the
  terms and conditions of the license agreement from Synopsys.
  Use of this program is your acceptance to be bound by the
  license agreement. HSPICE is the trademark of Synopsys, Inc.
  Input File: cmos0_tr_swing.sp                                                 
  Command line options: -i cmos0_tr_swing.sp -o cmos0_tr_swing.lis
  lic:  
  lic: FLEXlm: v10.9.8 
  lic: USER:   mohammad             HOSTNAME: mohammad 
  lic: HOSTID: "b4ae2b3bad62 a615ed2eb0cc b4ae2b3bad61 b6ae2b3ba960 b6ae2b3bac60
 " PID:      1100 
  lic: Using FLEXlm license file: 
  lic: C:\hspice_lic\synopsys.dat 
  lic: Checkout 1 hspice 
  lic: License/Maintenance for hspice will expire on 31-dec-2019/2019.12 
  lic: NODE LOCKED license on hostid "b4ae2b3bad62 a615ed2eb0cc b4ae2b3bad61 b6a
 e2b3ba960 b6ae2b3bac6
  lic:   
 Init: read install configuration file: C:\synopsys\Hspice_H-2013.03-SP2\meta.cfg

 **warning**  runlvl smaller than 5, reset to 5  when accurate turned on
  **warning** (cmos0_tr_swing.sp:37) Syntax error while using .print/.probe, missing output variable. Line ignored.

 **warning**  runlvl smaller than 5, reset to 5  when accurate turned on
  **info** (cmos0_tr_swing.sp:29) DC voltage reset to initial transient source value              in source        0:vintr               new dc=  0.0000D+00
 Model Name: pch.10  
 BSIM4 Model (Level 54)
    MOBMOD = 0
    BINUNIT = 2
    PARAMCHK = 1
    CAPMOD = 2
    DIOMOD = 1
    RDSMOD = 0
    TRNQSMOD = 0
    ACNQSMOD = 0
    RBODYMOD = 0
    RGATEMOD = 0
    PERMOD = 1
    GEOMOD = 0
    RGEOMOD = 0
    FNOIMOD = 1
    TNOIMOD = 0
    IGCMOD = 1
    IGBMOD = 1
    STIMOD = 1
    VBFWDMOD = 0
    VERSION =    4.4 
    TOXREF = 3e-009 
    TOXE = 2.5e-009 
    TOXP = 1.975e-009 
    TOXM = 2.5e-009 
    DTOX = 5.25e-010 
    EPSROX =    3.9 
    CDSC =      0 
    CDSCB =      0 
    CDSCD =      0 
    CIT = -0.0008977 
    NFACTOR = 0.4795 
    XJ = 1.7e-007 
    VSAT = 1.2e+005 
    A0 =   3.62 
    AGS =  3.255 
    A1 =      0 
    A2 =      1 
    AT = 2.25e+005 
    KETA = -0.2378 
    NSUB = 6e+016 
    NDEP = 1.72e+017 
    NSD = 1e+020 
    NGATE = 8e+019 
    GAMMA1 =      0 
    GAMMA2 =      0 
    VBX =      0 
    VBM =     -3 
    XT = 1.55e-007 
    K1 = 0.1623 
    KT1 = -0.2563 
    KT1L =      0 
    KT2 = -0.03875 
    K2 = 0.03535 
    K3 =  -0.58 
    K3B =    0.8 
    LPE0 = 2.805e-007 
    LPEB = 1e-007 
    DVTP0 =      0 
    DVTP1 =      0 
    W0 =      0 
    DVT0 =     10 
    DVT1 =   1.71 
    DVT2 = 0.0928 
    DVT0W =      0 
    DVT1W =      0 
    DVT2W =      0 
    DROUT =      0 
    DSUB =    0.5 
    VTH0 = -0.1785 
    EU =      1 
    UA = -8.293e-010 
    UA1 = 2.051e-009 
    UB = 2.654e-018 
    UB1 = -3.78e-018 
    UC = 6.611e-011 
    UC1 = -6.421e-011 
    U0 = 0.009495 
    UTE = -1.241 
    VOFF = -0.1134 
    VOFFL =      0 
    MINV =      0 
    FPROUT =   1000 
    PDITS =      0 
    PDITSD =      0 
    PDITSL =      0 
    DELTA =   0.02 
    RDSW =    210 
    RDSWMIN =      0 
    RDWMIN =      0 
    RSWMIN =      0 
    RDW =    100 
    RSW =    100 
    PRWG =      0 
    PRWB =      0 
    PRT =      0 
    ETA0 = 0.1517 
    ETAB = -0.009714 
    PCLM = 0.6429 
    PDIBLC1 =      0 
    PDIBLC2 =  0.005 
    PDIBLCB =      0 
    PSCBE1 = 9.264e+008 
    PSCBE2 = 1e-020 
    PVAG =      0 
    WR =      1 
    DWG =      0 
    DWB =      0 
    XW = 1e-008 
    XWREF = 1e-008 
    XL = -3.5e-008 
    XLREF = -3.5e-008 
    B0 =      0 
    B1 =      0 
    ALPHA0 =      0 
    ALPHA1 =   0.06 
    AGIDL = 9e-008 
    BGIDL = 2.3e+009 
    CGIDL =    0.5 
    PHIN =      0 
    EGIDL =   0.53 
    AIGC = 0.00606 
    BIGC = 0.0007625 
    CIGC = 1e-010 
    AIGSD = 0.004582 
    BIGSD =      0 
    CIGSD = 0.002267 
    AIGBACC = 0.01069 
    BIGBACC = 0.003132 
    CIGBACC = 0.1498 
    AIGBINV =   0.35 
    BIGBINV =   0.03 
    CIGBINV =  0.006 
    NIGC =      1 
    NIGBINV =      1 
    NIGBACC =  4.049 
    NTOX =      1 
    EIGBINV =    1.1 
    PIGCD =    2.3 
    POXEDGE =      1 
    XRCRG1 =     12 
    TNOIA =    1.5 
    TNOIB =    3.5 
    NTNOI =      1 
    XRCRG2 =      1 
    BETA0 =     12 
    IJTHDFWD =   0.01 
    IJTHSFWD =   0.01 
    IJTHDREV =   0.01 
    IJTHSREV =   0.01 
    XJBVD =      1 
    XJBVS =      1 
    BVD =     10 
    BVS =     10 
    VFB =     -1 
    GBMIN = 1e-012 
    RBDB =     50 
    RBPB =     50 
    RBSB =     50 
    RBPS =     50 
    RBPD =     50 
    CGSL = 1.896e-010 
    CGDL = 1.896e-010 
    CKAPPAS =    0.6 
    CKAPPAD =    0.6 
    CF = 1.38e-010 
    CLC = 1e-007 
    CLE =    0.6 
    DWC =      0 
    DLC = 1.525e-008 
    DLCIG = 2.5e-009 
    DWJ =      0 
    VFBCV =     -1 
    ACDE =    1.2 
    MOIN =  11.09 
    NOFF =  2.175 
    VOFFCV = -0.03885 
    DMCG = 9.25e-008 
    DMCI = 9.25e-008 
    DMDG =      0 
    DMCGT =      0 
    XGW =      0 
    XGL =      0 
    RSHG =    0.1 
    NGCON =      1 
    TCJ = 0.000854 
    TPB = 0.0019 
    TCJSW = 0.000357 
    TPBSW = 0.0019 
    TCJSWG = 0.00312 
    TPBSWG = 0.0019 
    SK0 =      0 
    SK1 =      0 
    SK2 =      0 
    SL = 2e-006 
    SW = 2e-006 
    K =      0 
    LCIT = 3.572e-010 
    LNFACTOR = 4.856e-008 
    LAT = -0.01058 
    LAGS = 7.702e-007 
    LKETA = 1.349e-008 
    LKT1 = -2.057e-009 
    LK2 = -2.698e-010 
    LVTH0 = 1.027e-009 
    LUA = 2.732e-017 
    LUA1 = -3.851e-017 
    LUB = 9.803e-027 
    LUB1 = -4.219e-026 
    LUC = 1.11e-017 
    LU0 = 6.85e-012 
    LUTE = -2.191e-008 
    LVOFF = -2.916e-009 
    LETA0 = -3.668e-009 
    LETAB = -2.057e-009 
    LPCLM = -2.657e-008 
    WCIT = 1.835e-009 
    WNFACTOR = -3.671e-007 
    WAT = 0.02394 
    WAGS = 2.624e-006 
    WKETA = -1.317e-008 
    WK2 = -2.346e-009 
    WVTH0 = 1.756e-009 
    WUA = 1.635e-016 
    WUA1 = -3.716e-016 
    WUB = 3.91e-026 
    WUB1 = -3.655e-025 
    WUC = 5.693e-017 
    WU0 = -9.688e-010 
    WUTE = -8.81e-008 
    WVOFF = -4.453e-009 
    WETA0 = -4.549e-008 
    WAIGSD = 7.821e-011 
    PCIT = -1.436e-016 
    PNFACTOR = 2.873e-014 
    PAT = -1.435e-009 
    PAGS = -5.248e-013 
    PKETA = 2.633e-015 
    PK2 = 4.692e-016 
    PVTH0 = 1.302e-015 
    PUA = -2.342e-023 
    PUA1 = 7.23e-023 
    PUB = -4.491e-032 
    PUB1 = 5.679e-032 
    PUC = -1.139e-023 
    PU0 = -1.577e-016 
    PUTE = 3.907e-014 
    PVOFF = 2.499e-015 
    PETA0 = 2.394e-015 
    TNOM =  298.1 
    CGSO = 2.568e-011 
    CGDO = 2.568e-011 
    CGBO =      0 
    XPART =      1 
    RSH =   9.68 
    JSS = 1.245e-007 
    JSWS = 3.77e-013 
    JSWGS = 3e-012 
    PBS =    0.8 
    MJS =   0.36 
    PBSWS =    0.8 
    MJSWS =   0.01 
    CJS = 0.00114 
    CJSWS = 6e-011 
    NJS =      1 
    PBSWGS =      1 
    MJSWGS =   0.99 
    CJSWGS = 3.6e-010 
    XTIS =      3 
    JSD = 1.245e-007 
    JSWD = 3.77e-013 
    JSWGD = 3e-012 
    PBD =    0.8 
    MJD =   0.36 
    PBSWD =    0.8 
    MJSWD =   0.01 
    CJD = 0.00114 
    CJSWD = 6e-011 
    NJD =      1 
    PBSWGD =      1 
    MJSWGD =   0.99 
    CJSWGD = 3.6e-010 
    XTID =      3 
    LMLT =      1 
    WMLT =      1 
    LINT = 2.5e-009 
    LL =      0 
    LLC =      0 
    LLN =      1 
    LW =      0 
    LWC =      0 
    LWN =      1 
    LWL =      0 
    LWLC =      0 
    LMIN = 1e-007 
    LMAX = 2.4e-007 
    WINT = 5e-009 
    WL =      0 
    WLC =      0 
    WLN =      1 
    WW =      0 
    WWC =      0 
    WWN =      1 
    WWL =      0 
    WWLC =      0 
    WMIN = 1.005e-006 
    WMAX = 1.001e-005 
    NOIA = 1.635e+042 
    NOIB = 7.241e+026 
    NOIC =   8.75 
    EM = 1.5e+008 
    EF =   1.19 
    AF =      1 
    KF =      0 
    TRS =      0 
    TRD =      0 
    TEMPMOD  =      0 
    LAMBDA   =      0 
    VTL      = 2e+005 m/s
    LC       = 5e-009 
    XN       =      3 
    LLAMBDA  =      0 
    LVTL     =      0 
    LXN      =      0 
    WLAMBDA  =      0 
    WVTL     =      0 
    WXN      =      0 
    PLAMBDA  =      0 
    PVTL     =      0 
    PXN      =      0 
    RNOIA    =  0.577 
    RNOIB    = 0.5164 
    SAREF(SA0) = 6.3e-007 m
    SBREF(SB0) = 6.3e-007 m
    WLOD     = 8e-007 m
    KU0      = 1.325e-007 1/m
    KVSAT    =   -0.9 
    KVTH0    = -1.5e-009 m
    TKU0     =    0.1 
    LLODKU0  =      1 
    WLODKU0  =      1 
    LLODVTH  =      2 
    WLODVTH  =      1 
    LKU0     = 1.33e-007 
    WKU0     = 6.5e-007 
    PKU0     =      0 
    LKVTH0   = -1.68e-015 
    WKVTH0   = 5e-007 
    PKVTH0   =      0 
    STK2     = 4e-010 
    LODK2    =      2 
    STETA0   =      0 
    LODETA0  =      1 
    LXRCRG1  =      0 
    WXRCRG1  =      0 
    PXRCRG1  =      0 
    LXRCRG2  =      0 
    WXRCRG2  =      0 
    PXRCRG2  =      0 
     *** UCB's BSIM4.4.0 new diode model is activated. ***
    *** UCB's Diode Model Parameters ***
    JTSS         =      0 
    JTSSWS       =      0 
    JTSSWGS      =      0 
    JTSD         =      0 
    JTSSWD       =      0 
    JTSSWGD      =      0 
    NJTS         =     20 
    NJTSSW       =     20 
    NJTSSWG      =     20 
    XTSS         =   0.02 
    XTSSWS       =   0.02 
    XTSSWGS      =   0.02 
    XTSD         =   0.02 
    XTSSWD       =   0.02 
    XTSSWGD      =   0.02 
    TNJTS        =      0 
    TNJTSSW      =      0 
    TNJTSSWG     =      0 
    VFBSDOFF     =      0 
    LVFBSDOFF    =      0 
    WVFBSDOFF    =      0 
    PVFBSDOFF    =      0 
    LINTNOI      =      0 
    VTSS         =     10 
    VTSD         =     10 
    VTSSWS       =     10 
    VTSSWD       =     10 
    VTSSWGS      =     10 
    VTSSWGD      =     10 
    TTDIOMOD     =      1 
 Model Name: nch.16  
 BSIM4 Model (Level 54)
    MOBMOD = 0
    BINUNIT = 2
    PARAMCHK = 1
    CAPMOD = 2
    DIOMOD = 1
    RDSMOD = 0
    TRNQSMOD = 0
    ACNQSMOD = 0
    RBODYMOD = 0
    RGATEMOD = 0
    PERMOD = 1
    GEOMOD = 0
    RGEOMOD = 0
    FNOIMOD = 1
    TNOIMOD = 0
    IGCMOD = 1
    IGBMOD = 1
    STIMOD = 1
    VBFWDMOD = 0
    VERSION =    4.4 
    TOXREF = 3e-009 
    TOXE = 2.33e-009 
    TOXP = 2.03e-009 
    TOXM = 2.33e-009 
    DTOX = 3e-010 
    EPSROX =    3.9 
    CDSC =      0 
    CDSCB =      0 
    CDSCD =      0 
    CIT = -0.0001229 
    NFACTOR =    0.5 
    XJ = 1.5e-007 
    VSAT = 1.14e+005 
    A0 =  2.375 
    AGS =   0.95 
    A1 =      0 
    A2 =      1 
    AT = 3.536e+004 
    KETA = -0.04414 
    NSUB = 6e+016 
    NDEP = 8.369e+017 
    NSD = 1e+020 
    NGATE = 4e+020 
    GAMMA1 =      0 
    GAMMA2 =      0 
    VBX =      0 
    VBM =     -3 
    XT = 1.55e-007 
    K1 =  0.312 
    KT1 = -0.2624 
    KT1L =      0 
    KT2 = -0.04464 
    K2 = -0.009286 
    K3 = -2.957 
    K3B =    1.2 
    LPE0 = 4.45e-008 
    LPEB =      0 
    DVTP0 = 4e-007 
    DVTP1 =      2 
    W0 = -5e-008 
    DVT0 =   13.9 
    DVT1 =   1.25 
    DVT2 =      0 
    DVT0W =      0 
    DVT1W =      0 
    DVT2W =      0 
    DROUT =      0 
    DSUB =    0.5 
    VTH0 =  0.228 
    EU =   1.67 
    UA = -6.284e-010 
    UA1 = 2.684e-009 
    UB = 9.691e-019 
    UB1 = -3.673e-018 
    UC = 1.285e-010 
    UC1 = -1.646e-010 
    U0 = 0.02973 
    UTE = -1.467 
    VOFF = -0.1288 
    VOFFL =      0 
    MINV =      0 
    FPROUT =    200 
    PDITS =      0 
    PDITSD =      0 
    PDITSL =      0 
    DELTA = 0.0075 
    RDSW =    140 
    RDSWMIN =      0 
    RDWMIN =      0 
    RSWMIN =      0 
    RDW =    100 
    RSW =    100 
    PRWG =      0 
    PRWB =      0 
    PRT =      0 
    ETA0 = 0.2301 
    ETAB =   -0.1 
    PCLM =   0.84 
    PDIBLC1 =      0 
    PDIBLC2 = 0.0001 
    PDIBLCB =      0 
    PSCBE1 = 9.264e+008 
    PSCBE2 = 1e-020 
    PVAG =    1.5 
    WR =      1 
    DWG =      0 
    DWB =      0 
    XW = 1e-008 
    XWREF = 1e-008 
    XL = -3.5e-008 
    XLREF = -3.5e-008 
    B0 =      0 
    B1 =      0 
    ALPHA0 =      0 
    ALPHA1 =   0.03 
    AGIDL = 9e-008 
    BGIDL = 2.3e+009 
    CGIDL =    0.5 
    PHIN =      0 
    EGIDL =   0.53 
    AIGC = 0.0103 
    BIGC = 0.001525 
    CIGC =      0 
    AIGSD = 0.00845 
    BIGSD = 0.0004021 
    CIGSD = 0.001463 
    AIGBACC = 0.01134 
    BIGBACC = 0.003249 
    CIGBACC = 0.1416 
    AIGBINV =   0.35 
    BIGBINV =   0.03 
    CIGBINV =  0.006 
    NIGC =      1 
    NIGBINV =      1 
    NIGBACC =   4.05 
    NTOX =      1 
    EIGBINV =    1.1 
    PIGCD =    2.3 
    POXEDGE =      1 
    XRCRG1 =     12 
    TNOIA =    1.5 
    TNOIB =    3.5 
    NTNOI =      1 
    XRCRG2 =      1 
    BETA0 =    8.7 
    IJTHDFWD =   0.01 
    IJTHSFWD =   0.01 
    IJTHDREV =   0.01 
    IJTHSREV =   0.01 
    XJBVD =      1 
    XJBVS =      1 
    BVD =     10 
    BVS =     10 
    VFB =     -1 
    GBMIN = 1e-012 
    RBDB =     50 
    RBPB =     50 
    RBSB =     50 
    RBPS =     50 
    RBPD =     50 
    CGSL = 6.514e-011 
    CGDL = 6.514e-011 
    CKAPPAS =    0.6 
    CKAPPAD =    0.6 
    CF = 1.38e-010 
    CLC = 1e-007 
    CLE =    0.6 
    DWC =      0 
    DLC = 1.172e-008 
    DLCIG = 2.5e-009 
    DWJ =      0 
    VFBCV =     -1 
    ACDE =    1.2 
    MOIN =   12.6 
    NOFF =  1.686 
    VOFFCV = -0.05472 
    DMCG = 9.25e-008 
    DMCI = 9.25e-008 
    DMDG =      0 
    DMCGT =      0 
    XGW =      0 
    XGL =      0 
    RSHG =    0.1 
    NGCON =      1 
    TCJ = 0.000732 
    TPB =  0.001 
    TCJSW = 0.000357 
    TPBSW = 0.0019 
    TCJSWG = 0.000357 
    TPBSWG = 0.0019 
    SK0 =      0 
    SK1 =      0 
    SK2 =      0 
    SL = 2e-006 
    SW = 2e-006 
    K =      0 
    LCIT = 2.246e-010 
    LAT = 0.001929 
    LKETA = 3.429e-009 
    LK1 = 2.22e-009 
    LKT1 = -1.62e-009 
    LK2 = 8.571e-010 
    LK3 = 1.543e-008 
    LUB = 1.642e-026 
    LUC = -6.562e-019 
    LUC1 = 6.025e-018 
    LUTE = 4.912e-009 
    LVOFF = -1.32e-009 
    WUB = 2.626e-026 
    WUC = -1.316e-017 
    WU0 = -4.701e-010 
    WUTE = 4.063e-008 
    WVOFF = -1.934e-009 
    WETA0 = -2.068e-008 
    PUB = 2.176e-033 
    PUC = 4.034e-025 
    PUTE = 8.059e-016 
    PVOFF = -6.447e-017 
    TNOM =  298.1 
    CGSO = 1.209e-010 
    CGDO = 1.209e-010 
    CGBO =      0 
    XPART =      1 
    RSH =   10.5 
    JSS = 1.77e-007 
    JSWS = 4.23e-013 
    JSWGS = 9e-012 
    PBS =    0.5 
    MJS =   0.25 
    PBSWS =    0.8 
    MJSWS =   0.01 
    CJS = 0.00098 
    CJSWS = 4e-011 
    NJS =      1 
    PBSWGS =   0.78 
    MJSWGS =   0.52 
    CJSWGS = 3.7e-010 
    XTIS =      3 
    JSD = 1.77e-007 
    JSWD = 4.23e-013 
    JSWGD = 9e-012 
    PBD =    0.5 
    MJD =   0.25 
    PBSWD =    0.8 
    MJSWD =   0.01 
    CJD = 0.00098 
    CJSWD = 4e-011 
    NJD =      1 
    PBSWGD =   0.78 
    MJSWGD =   0.52 
    CJSWGD = 3.7e-010 
    XTID =      3 
    LMLT =      1 
    WMLT =      1 
    LINT = 2.5e-009 
    LL =      0 
    LLC =      0 
    LLN =      1 
    LW =      0 
    LWC =      0 
    LWN =      1 
    LWL =      0 
    LWLC =      0 
    LMIN = 1e-007 
    LMAX = 2.4e-007 
    WINT = 6e-009 
    WL =      0 
    WLC =      0 
    WLN =      1 
    WW =      0 
    WWC =      0 
    WWN =      1 
    WWL =      0 
    WWLC =      0 
    WMIN = 2.45e-007 
    WMAX = 5.05e-007 
    NOIA = 4.293e+041 
    NOIB = 1.612e+024 
    NOIC =   8.75 
    EM = 1.192e+007 
    EF = 0.8841 
    AF =      1 
    KF =      0 
    TRS =      0 
    TRD =      0 
    TEMPMOD  =      0 
    LAMBDA   =      0 
    VTL      = 2e+005 m/s
    LC       = 5e-009 
    XN       =      3 
    LLAMBDA  =      0 
    LVTL     =      0 
    LXN      =      0 
    WLAMBDA  =      0 
    WVTL     =      0 
    WXN      =      0 
    PLAMBDA  =      0 
    PVTL     =      0 
    PXN      =      0 
    RNOIA    =  0.577 
    RNOIB    = 0.5164 
    SAREF(SA0) = 6.3e-007 m
    SBREF(SB0) = 6.3e-007 m
    WLOD     = 8e-007 m
    KU0      = -7.36e-008 1/m
    KVSAT    =    0.2 
    KVTH0    = 3.5e-009 m
    TKU0     =   0.01 
    LLODKU0  =      1 
    WLODKU0  =      1 
    LLODVTH  =      1 
    WLODVTH  =      1 
    LKU0     = 4.027e-007 
    WKU0     = 8e-007 
    PKU0     = -2e-013 
    LKVTH0   = -2.68e-011 
    WKVTH0   = 1.5e-006 
    PKVTH0   =      0 
    STK2     = 1.35e-009 
    LODK2    =    0.5 
    STETA0   =      0 
    LODETA0  =      1 
    LXRCRG1  =      0 
    WXRCRG1  =      0 
    PXRCRG1  =      0 
    LXRCRG2  =      0 
    WXRCRG2  =      0 
    PXRCRG2  =      0 
     *** UCB's BSIM4.4.0 new diode model is activated. ***
    *** UCB's Diode Model Parameters ***
    JTSS         =      0 
    JTSSWS       =      0 
    JTSSWGS      =      0 
    JTSD         =      0 
    JTSSWD       =      0 
    JTSSWGD      =      0 
    NJTS         =     20 
    NJTSSW       =     20 
    NJTSSWG      =     20 
    XTSS         =   0.02 
    XTSSWS       =   0.02 
    XTSSWGS      =   0.02 
    XTSD         =   0.02 
    XTSSWD       =   0.02 
    XTSSWGD      =   0.02 
    TNJTS        =      0 
    TNJTSSW      =      0 
    TNJTSSWG     =      0 
    VFBSDOFF     =      0 
    LVFBSDOFF    =      0 
    WVFBSDOFF    =      0 
    PVFBSDOFF    =      0 
    LINTNOI      =      0 
    VTSS         =     10 
    VTSD         =     10 
    VTSSWS       =     10 
    VTSSWD       =     10 
    VTSSWGS      =     10 
    VTSSWGD      =     10 
    TTDIOMOD     =      1 
 Model Name: nch.8  
 BSIM4 Model (Level 54)
    MOBMOD = 0
    BINUNIT = 2
    PARAMCHK = 1
    CAPMOD = 2
    DIOMOD = 1
    RDSMOD = 0
    TRNQSMOD = 0
    ACNQSMOD = 0
    RBODYMOD = 0
    RGATEMOD = 0
    PERMOD = 1
    GEOMOD = 0
    RGEOMOD = 0
    FNOIMOD = 1
    TNOIMOD = 0
    IGCMOD = 1
    IGBMOD = 1
    STIMOD = 1
    VBFWDMOD = 0
    VERSION =    4.4 
    TOXREF = 3e-009 
    TOXE = 2.33e-009 
    TOXP = 2.03e-009 
    TOXM = 2.33e-009 
    DTOX = 3e-010 
    EPSROX =    3.9 
    CDSC =      0 
    CDSCB =      0 
    CDSCD =      0 
    CIT = -0.0001229 
    NFACTOR =    0.5 
    XJ = 1.5e-007 
    VSAT = 1.14e+005 
    A0 =  2.375 
    AGS =   0.95 
    A1 =      0 
    A2 =      1 
    AT = 3.536e+004 
    KETA = -0.04414 
    NSUB = 6e+016 
    NDEP = 8.369e+017 
    NSD = 1e+020 
    NGATE = 4e+020 
    GAMMA1 =      0 
    GAMMA2 =      0 
    VBX =      0 
    VBM =     -3 
    XT = 1.55e-007 
    K1 = 0.3243 
    KT1 = -0.2624 
    KT1L =      0 
    KT2 = -0.04464 
    K2 = -0.01101 
    K3 = -2.957 
    K3B =    1.2 
    LPE0 = 4.45e-008 
    LPEB =      0 
    DVTP0 = 4e-007 
    DVTP1 =  1.571 
    W0 = -5e-008 
    DVT0 =   13.9 
    DVT1 =   1.25 
    DVT2 =      0 
    DVT0W =      0 
    DVT1W =      0 
    DVT2W =      0 
    DROUT =      0 
    DSUB =    0.5 
    VTH0 = 0.2274 
    EU =   1.67 
    UA = -6.284e-010 
    UA1 = 2.684e-009 
    UB = 2.292e-018 
    UB1 = -3.673e-018 
    UC = 2.411e-010 
    UC1 = -6.421e-011 
    U0 = 0.04546 
    UTE =  -1.55 
    VOFF = -0.1159 
    VOFFL =      0 
    MINV =      0 
    FPROUT =    200 
    PDITS =      0 
    PDITSD =      0 
    PDITSL =      0 
    DELTA = 0.0075 
    RDSW =    140 
    RDSWMIN =      0 
    RDWMIN =      0 
    RSWMIN =      0 
    RDW =    100 
    RSW =    100 
    PRWG =      0 
    PRWB =      0 
    PRT =      0 
    ETA0 = 0.2213 
    ETAB =   -0.1 
    PCLM =   0.84 
    PDIBLC1 =      0 
    PDIBLC2 = 1.429e-005 
    PDIBLCB =      0 
    PSCBE1 = 9.264e+008 
    PSCBE2 = 1e-020 
    PVAG =    1.5 
    WR =      1 
    DWG =      0 
    DWB =      0 
    XW = 1e-008 
    XWREF = 1e-008 
    XL = -3.5e-008 
    XLREF = -3.5e-008 
    B0 =      0 
    B1 =      0 
    ALPHA0 =      0 
    ALPHA1 =   0.03 
    AGIDL = 9e-008 
    BGIDL = 2.3e+009 
    CGIDL =    0.5 
    PHIN =      0 
    EGIDL =   0.53 
    AIGC = 0.01035 
    BIGC = 0.001525 
    CIGC =      0 
    AIGSD = 0.008355 
    BIGSD = 0.0004021 
    CIGSD = 0.001463 
    AIGBACC = 0.01134 
    BIGBACC = 0.003249 
    CIGBACC = 0.1416 
    AIGBINV =   0.35 
    BIGBINV =   0.03 
    CIGBINV =  0.006 
    NIGC =      1 
    NIGBINV =      1 
    NIGBACC =   4.05 
    NTOX =      1 
    EIGBINV =    1.1 
    PIGCD =    2.3 
    POXEDGE =      1 
    XRCRG1 =     12 
    TNOIA =    1.5 
    TNOIB =    3.5 
    NTNOI =      1 
    XRCRG2 =      1 
    BETA0 =    8.7 
    IJTHDFWD =   0.01 
    IJTHSFWD =   0.01 
    IJTHDREV =   0.01 
    IJTHSREV =   0.01 
    XJBVD =      1 
    XJBVS =      1 
    BVD =     10 
    BVS =     10 
    VFB =     -1 
    GBMIN = 1e-012 
    RBDB =     50 
    RBPB =     50 
    RBSB =     50 
    RBPS =     50 
    RBPD =     50 
    CGSL = 6.514e-011 
    CGDL = 6.514e-011 
    CKAPPAS =    0.6 
    CKAPPAD =    0.6 
    CF = 1.38e-010 
    CLC = 1e-007 
    CLE =    0.6 
    DWC =      0 
    DLC = 1.172e-008 
    DLCIG = 2.5e-009 
    DWJ =      0 
    VFBCV =     -1 
    ACDE =    1.2 
    MOIN =   12.6 
    NOFF =  1.686 
    VOFFCV = -0.05472 
    DMCG = 9.25e-008 
    DMCI = 9.25e-008 
    DMDG =      0 
    DMCGT =      0 
    XGW =      0 
    XGL =      0 
    RSHG =    0.1 
    NGCON =      1 
    TCJ = 0.000732 
    TPB =  0.001 
    TCJSW = 0.000357 
    TPBSW = 0.0019 
    TCJSWG = 0.000357 
    TPBSWG = 0.0019 
    SK0 =      0 
    SK1 =      0 
    SK2 =      0 
    SL = 2e-006 
    SW = 2e-006 
    K =      0 
    LCIT = 2.246e-010 
    LAT = 0.001929 
    LKETA = 3.429e-009 
    LK1 = -2.474e-010 
    LKT1 = -1.62e-009 
    LK2 = 1.203e-009 
    LK3 = 1.543e-008 
    LDVTP1 = 8.571e-008 
    LUB = -9.155e-027 
    LUC = -4.108e-019 
    LU0 = -5.144e-010 
    LUTE = 1.114e-008 
    LVOFF = -2.472e-009 
    LPDIBLC2 = 1.714e-011 
    LAIGC = -9.429e-012 
    LAIGSD = 5.716e-012 
    WK1 = -1.237e-008 
    WK2 = 3.453e-009 
    WVTH0 = 5.574e-009 
    WUB = -1.088e-024 
    WUC = -1.345e-016 
    WU0 = -1.23e-008 
    WUTE = 7.437e-008 
    WVOFF = -1.64e-008 
    WETA0 = -1.338e-008 
    WAIGSD = 9.555e-011 
    PK1 = 2.475e-015 
    PK2 = -6.907e-016 
    PUB = 4.185e-032 
    PUC = 4.109e-024 
    PU0 = 5.16e-016 
    PUTE = -1.72e-015 
    PVOFF = 1.319e-015 
    PAIGSD = -5.733e-018 
    TNOM =  298.1 
    CGSO = 1.209e-010 
    CGDO = 1.209e-010 
    CGBO =      0 
    XPART =      1 
    RSH =   10.5 
    JSS = 1.77e-007 
    JSWS = 4.23e-013 
    JSWGS = 9e-012 
    PBS =    0.5 
    MJS =   0.25 
    PBSWS =    0.8 
    MJSWS =   0.01 
    CJS = 0.00098 
    CJSWS = 4e-011 
    NJS =      1 
    PBSWGS =   0.78 
    MJSWGS =   0.52 
    CJSWGS = 3.7e-010 
    XTIS =      3 
    JSD = 1.77e-007 
    JSWD = 4.23e-013 
    JSWGD = 9e-012 
    PBD =    0.5 
    MJD =   0.25 
    PBSWD =    0.8 
    MJSWD =   0.01 
    CJD = 0.00098 
    CJSWD = 4e-011 
    NJD =      1 
    PBSWGD =   0.78 
    MJSWGD =   0.52 
    CJSWGD = 3.7e-010 
    XTID =      3 
    LMLT =      1 
    WMLT =      1 
    LINT = 2.5e-009 
    LL =      0 
    LLC =      0 
    LLN =      1 
    LW =      0 
    LWC =      0 
    LWN =      1 
    LWL =      0 
    LWLC =      0 
    LMIN = 1e-007 
    LMAX = 2.4e-007 
    WINT = 6e-009 
    WL =      0 
    WLC =      0 
    WLN =      1 
    WW =      0 
    WWC =      0 
    WWN =      1 
    WWL =      0 
    WWLC =      0 
    WMIN = 1.005e-006 
    WMAX = 1.001e-005 
    NOIA = 4.293e+041 
    NOIB = 1.612e+024 
    NOIC =   8.75 
    EM = 1.192e+007 
    EF = 0.8841 
    AF =      1 
    KF =      0 
    TRS =      0 
    TRD =      0 
    TEMPMOD  =      0 
    LAMBDA   =      0 
    VTL      = 2e+005 m/s
    LC       = 5e-009 
    XN       =      3 
    LLAMBDA  =      0 
    LVTL     =      0 
    LXN      =      0 
    WLAMBDA  =      0 
    WVTL     =      0 
    WXN      =      0 
    PLAMBDA  =      0 
    PVTL     =      0 
    PXN      =      0 
    RNOIA    =  0.577 
    RNOIB    = 0.5164 
    SAREF(SA0) = 6.3e-007 m
    SBREF(SB0) = 6.3e-007 m
    WLOD     = 8e-007 m
    KU0      = -7.36e-008 1/m
    KVSAT    =    0.2 
    KVTH0    = 3.5e-009 m
    TKU0     =   0.01 
    LLODKU0  =      1 
    WLODKU0  =      1 
    LLODVTH  =      1 
    WLODVTH  =      1 
    LKU0     = 4.027e-007 
    WKU0     = 8e-007 
    PKU0     = -2e-013 
    LKVTH0   = -2.68e-011 
    WKVTH0   = 1.5e-006 
    PKVTH0   =      0 
    STK2     = 1.35e-009 
    LODK2    =    0.5 
    STETA0   =      0 
    LODETA0  =      1 
    LXRCRG1  =      0 
    WXRCRG1  =      0 
    PXRCRG1  =      0 
    LXRCRG2  =      0 
    WXRCRG2  =      0 
    PXRCRG2  =      0 
     *** UCB's BSIM4.4.0 new diode model is activated. ***
    *** UCB's Diode Model Parameters ***
    JTSS         =      0 
    JTSSWS       =      0 
    JTSSWGS      =      0 
    JTSD         =      0 
    JTSSWD       =      0 
    JTSSWGD      =      0 
    NJTS         =     20 
    NJTSSW       =     20 
    NJTSSWG      =     20 
    XTSS         =   0.02 
    XTSSWS       =   0.02 
    XTSSWGS      =   0.02 
    XTSD         =   0.02 
    XTSSWD       =   0.02 
    XTSSWGD      =   0.02 
    TNJTS        =      0 
    TNJTSSW      =      0 
    TNJTSSWG     =      0 
    VFBSDOFF     =      0 
    LVFBSDOFF    =      0 
    WVFBSDOFF    =      0 
    PVFBSDOFF    =      0 
    LINTNOI      =      0 
    VTSS         =     10 
    VTSD         =     10 
    VTSSWS       =     10 
    VTSSWD       =     10 
    VTSSWGS      =     10 
    VTSSWGD      =     10 
    TTDIOMOD     =      1 
 Model Name: pch.20  
 BSIM4 Model (Level 54)
    MOBMOD = 0
    BINUNIT = 2
    PARAMCHK = 1
    CAPMOD = 2
    DIOMOD = 1
    RDSMOD = 0
    TRNQSMOD = 0
    ACNQSMOD = 0
    RBODYMOD = 0
    RGATEMOD = 0
    PERMOD = 1
    GEOMOD = 0
    RGEOMOD = 0
    FNOIMOD = 1
    TNOIMOD = 0
    IGCMOD = 1
    IGBMOD = 1
    STIMOD = 1
    VBFWDMOD = 0
    VERSION =    4.4 
    TOXREF = 3e-009 
    TOXE = 2.5e-009 
    TOXP = 1.975e-009 
    TOXM = 2.5e-009 
    DTOX = 5.25e-010 
    EPSROX =    3.9 
    CDSC =      0 
    CDSCB =      0 
    CDSCD =      0 
    CIT = -0.0002857 
    NFACTOR = -1.191 
    XJ = 1.7e-007 
    VSAT = 1.2e+005 
    A0 =   3.62 
    AGS =  5.742 
    A1 =      0 
    A2 =      1 
    AT = 2.83e+005 
    KETA = -0.2576 
    NSUB = 6e+016 
    NDEP = 1.72e+017 
    NSD = 1e+020 
    NGATE = 8e+019 
    GAMMA1 =      0 
    GAMMA2 =      0 
    VBX =      0 
    VBM =     -3 
    XT = 1.55e-007 
    K1 = 0.1623 
    KT1 = -0.2258 
    KT1L =      0 
    KT2 = -0.03875 
    K2 = 0.03015 
    K3 =  -0.58 
    K3B =    0.8 
    LPE0 = 2.805e-007 
    LPEB = 1e-007 
    DVTP0 =      0 
    DVTP1 =      0 
    W0 =      0 
    DVT0 =     10 
    DVT1 =   1.71 
    DVT2 = 0.0928 
    DVT0W =      0 
    DVT1W =      0 
    DVT2W =      0 
    DROUT =      0 
    DSUB =    0.5 
    VTH0 = -0.1873 
    EU =      1 
    UA = -4.197e-010 
    UA1 = 6.229e-010 
    UB = 2.527e-018 
    UB1 = -3.63e-018 
    UC = 1.202e-010 
    UC1 = -6.421e-011 
    U0 = 0.008267 
    UTE = -1.609 
    VOFF = -0.1416 
    VOFFL =      0 
    MINV =      0 
    FPROUT =   1000 
    PDITS =      0 
    PDITSD =      0 
    PDITSL =      0 
    DELTA =   0.02 
    RDSW =    210 
    RDSWMIN =      0 
    RDWMIN =      0 
    RSWMIN =      0 
    RDW =    100 
    RSW =    100 
    PRWG =      0 
    PRWB =      0 
    PRT =      0 
    ETA0 = 0.06098 
    ETAB = -0.01537 
    PCLM = 0.6429 
    PDIBLC1 =      0 
    PDIBLC2 =  0.005 
    PDIBLCB =      0 
    PSCBE1 = 9.264e+008 
    PSCBE2 = 1e-020 
    PVAG =      0 
    WR =      1 
    DWG =      0 
    DWB =      0 
    XW = 1e-008 
    XWREF = 1e-008 
    XL = -3.5e-008 
    XLREF = -3.5e-008 
    B0 =      0 
    B1 =      0 
    ALPHA0 =      0 
    ALPHA1 =   0.06 
    AGIDL = 9e-008 
    BGIDL = 2.3e+009 
    CGIDL =    0.5 
    PHIN =      0 
    EGIDL =   0.53 
    AIGC = 0.00606 
    BIGC = 0.0007625 
    CIGC = 1e-010 
    AIGSD = 0.004566 
    BIGSD =      0 
    CIGSD = 0.002267 
    AIGBACC = 0.01069 
    BIGBACC = 0.003132 
    CIGBACC = 0.1498 
    AIGBINV =   0.35 
    BIGBINV =   0.03 
    CIGBINV =  0.006 
    NIGC =      1 
    NIGBINV =      1 
    NIGBACC =  4.049 
    NTOX =      1 
    EIGBINV =    1.1 
    PIGCD =    2.3 
    POXEDGE =      1 
    XRCRG1 =     12 
    TNOIA =    1.5 
    TNOIB =    3.5 
    NTNOI =      1 
    XRCRG2 =      1 
    BETA0 =     12 
    IJTHDFWD =   0.01 
    IJTHSFWD =   0.01 
    IJTHDREV =   0.01 
    IJTHSREV =   0.01 
    XJBVD =      1 
    XJBVS =      1 
    BVD =     10 
    BVS =     10 
    VFB =     -1 
    GBMIN = 1e-012 
    RBDB =     50 
    RBPB =     50 
    RBSB =     50 
    RBPS =     50 
    RBPD =     50 
    CGSL = 1.896e-010 
    CGDL = 1.896e-010 
    CKAPPAS =    0.6 
    CKAPPAD =    0.6 
    CF = 1.38e-010 
    CLC = 1e-007 
    CLE =    0.6 
    DWC =      0 
    DLC = 1.525e-008 
    DLCIG = 2.5e-009 
    DWJ =      0 
    VFBCV =     -1 
    ACDE =    1.2 
    MOIN =  11.09 
    NOFF =  2.175 
    VOFFCV = -0.03885 
    DMCG = 9.25e-008 
    DMCI = 9.25e-008 
    DMDG =      0 
    DMCGT =      0 
    XGW =      0 
    XGL =      0 
    RSHG =    0.1 
    NGCON =      1 
    TCJ = 0.000854 
    TPB = 0.0019 
    TCJSW = 0.000357 
    TPBSW = 0.0019 
    TCJSWG = 0.00312 
    TPBSWG = 0.0019 
    SK0 =      0 
    SK1 =      0 
    SK2 =      0 
    SL = 2e-006 
    SW = 2e-006 
    K =      0 
    LCIT = 2.571e-010 
    LNFACTOR = 2.064e-007 
    LAT = -0.01381 
    LAGS = 2.728e-007 
    LKETA = 1.744e-008 
    LKT1 = -8.17e-009 
    LK2 = 8.66e-010 
    LVTH0 = 4.038e-009 
    LUA = -4.216e-017 
    LUA1 = 1.188e-017 
    LUB = -2.588e-026 
    LUB1 = 1.305e-025 
    LUC = 1.469e-018 
    LU0 = -2.255e-010 
    LUTE = 2.963e-008 
    LVOFF = 2.359e-009 
    LETA0 = 1.69e-009 
    LETAB = -9.257e-010 
    LPCLM = -2.657e-008 
    WNFACTOR = 6.594e-007 
    WAT = -0.002993 
    WAGS = -1.02e-006 
    WKETA = 3.365e-009 
    WKT1 = -9.137e-009 
    WK2 = -2.583e-010 
    WVTH0 = 4.079e-009 
    WUA = -2.311e-017 
    WUA1 = 3.088e-016 
    WUB = -1.152e-025 
    WUB1 = -1.7e-026 
    WUC = -1.624e-017 
    WU0 = -4.079e-012 
    WUTE = 1.254e-007 
    WVOFF = 7.791e-009 
    WETA0 = -3.739e-009 
    WAIGSD = 6.71e-011 
    PNFACTOR = -6.526e-014 
    PAT = 1.799e-010 
    PAGS = 2.039e-013 
    PKETA = -6.73e-016 
    PKT1 = 1.827e-015 
    PK2 = -1.387e-016 
    PVTH0 = -7.016e-016 
    PUA = 4.307e-024 
    PUA1 = -2.855e-025 
    PUB = 8.566e-033 
    PUB1 = -3.324e-032 
    PUC = 1.937e-025 
    PU0 = 9.381e-018 
    PUTE = -8.035e-015 
    PVOFF = -1.187e-015 
    PETA0 = -2.039e-016 
    TNOM =  298.1 
    CGSO = 2.568e-011 
    CGDO = 2.568e-011 
    CGBO =      0 
    XPART =      1 
    RSH =   9.68 
    JSS = 1.245e-007 
    JSWS = 3.77e-013 
    JSWGS = 3e-012 
    PBS =    0.8 
    MJS =   0.36 
    PBSWS =    0.8 
    MJSWS =   0.01 
    CJS = 0.00114 
    CJSWS = 6e-011 
    NJS =      1 
    PBSWGS =      1 
    MJSWGS =   0.99 
    CJSWGS = 3.6e-010 
    XTIS =      3 
    JSD = 1.245e-007 
    JSWD = 3.77e-013 
    JSWGD = 3e-012 
    PBD =    0.8 
    MJD =   0.36 
    PBSWD =    0.8 
    MJSWD =   0.01 
    CJD = 0.00114 
    CJSWD = 6e-011 
    NJD =      1 
    PBSWGD =      1 
    MJSWGD =   0.99 
    CJSWGD = 3.6e-010 
    XTID =      3 
    LMLT =      1 
    WMLT =      1 
    LINT = 2.5e-009 
    LL =      0 
    LLC =      0 
    LLN =      1 
    LW =      0 
    LWC =      0 
    LWN =      1 
    LWL =      0 
    LWLC =      0 
    LMIN = 1e-007 
    LMAX = 2.4e-007 
    WINT = 5e-009 
    WL =      0 
    WLC =      0 
    WLN =      1 
    WW =      0 
    WWC =      0 
    WWN =      1 
    WWL =      0 
    WWLC =      0 
    WMIN = 2.45e-007 
    WMAX = 5.05e-007 
    NOIA = 1.635e+042 
    NOIB = 7.241e+026 
    NOIC =   8.75 
    EM = 1.5e+008 
    EF =   1.19 
    AF =      1 
    KF =      0 
    TRS =      0 
    TRD =      0 
    TEMPMOD  =      0 
    LAMBDA   =      0 
    VTL      = 2e+005 m/s
    LC       = 5e-009 
    XN       =      3 
    LLAMBDA  =      0 
    LVTL     =      0 
    LXN      =      0 
    WLAMBDA  =      0 
    WVTL     =      0 
    WXN      =      0 
    PLAMBDA  =      0 
    PVTL     =      0 
    PXN      =      0 
    RNOIA    =  0.577 
    RNOIB    = 0.5164 
    SAREF(SA0) = 6.3e-007 m
    SBREF(SB0) = 6.3e-007 m
    WLOD     = 8e-007 m
    KU0      = 1.325e-007 1/m
    KVSAT    =   -0.9 
    KVTH0    = -1.5e-009 m
    TKU0     =    0.1 
    LLODKU0  =      1 
    WLODKU0  =      1 
    LLODVTH  =      2 
    WLODVTH  =      1 
    LKU0     = 1.33e-007 
    WKU0     = 6.5e-007 
    PKU0     =      0 
    LKVTH0   = -1.68e-015 
    WKVTH0   = 5e-007 
    PKVTH0   =      0 
    STK2     = 4e-010 
    LODK2    =      2 
    STETA0   =      0 
    LODETA0  =      1 
    LXRCRG1  =      0 
    WXRCRG1  =      0 
    PXRCRG1  =      0 
    LXRCRG2  =      0 
    WXRCRG2  =      0 
    PXRCRG2  =      0 
     *** UCB's BSIM4.4.0 new diode model is activated. ***
    *** UCB's Diode Model Parameters ***
    JTSS         =      0 
    JTSSWS       =      0 
    JTSSWGS      =      0 
    JTSD         =      0 
    JTSSWD       =      0 
    JTSSWGD      =      0 
    NJTS         =     20 
    NJTSSW       =     20 
    NJTSSWG      =     20 
    XTSS         =   0.02 
    XTSSWS       =   0.02 
    XTSSWGS      =   0.02 
    XTSD         =   0.02 
    XTSSWD       =   0.02 
    XTSSWGD      =   0.02 
    TNJTS        =      0 
    TNJTSSW      =      0 
    TNJTSSWG     =      0 
    VFBSDOFF     =      0 
    LVFBSDOFF    =      0 
    WVFBSDOFF    =      0 
    PVFBSDOFF    =      0 
    LINTNOI      =      0 
    VTSS         =     10 
    VTSD         =     10 
    VTSSWS       =     10 
    VTSSWD       =     10 
    VTSSWGS      =     10 
    VTSSWGD      =     10 
    TTDIOMOD     =      1 
  **warning** (cmos0_tr_swing.sp:34) Unable to find referenced node ss; Output variable ignored. Specify a valid node.
  **warning** (cmos0_tr_swing.sp:34) .print/.probe statement contains unused output; the unused output is ignored.
  
      
 **info** set option symb=1 internally to help for convergence.
 *****************************************************************
 ******  option summary
 ******
 runlvl  = 5         bypass  = 2         
1****** HSPICE -- H-2013.03-SP2 64-BIT (Aug 26 2013) win64 ******               
 ******  
 ac	simulation

  ******  operating point information tnom=  25.000 temp=  25.000 *****
 ***** operating point status is voltage   simulation time is     0.     
    node    =voltage      node    =voltage      node    =voltage

 +0:a       = 748.0293m 0:b       = 440.0920m 0:c       = 440.0892m
 +0:d       = 565.6460m 0:f       = 583.1529m 0:hi      =   1.0000 
 +0:k       = 300.0000m 0:lo      =   0.      0:vin+    = 300.0000m
 +0:vin-    = 300.0000m 0:vout    = 505.5933m


          ***** job concluded
1****** HSPICE -- H-2013.03-SP2 64-BIT (Aug 26 2013) win64 ******               
 ******  
 ac	simulation

  ******  job statistics summary tnom=  25.000 temp=  25.000 *****

  ******  HSPICE Threads Information  ******

  Command Line Threads Count :     1
  Available CPU Count        :     4
  Actual Threads Count       :     1


  ******  Circuit Statistics  ******
  # nodes       =      12 # elements   =      21
  # resistors   =       0 # capacitors =       1 # inductors   =       0
  # mutual_inds =       0 # vccs       =       0 # vcvs        =       0
  # cccs        =       0 # ccvs       =       0 # volt_srcs   =       5
  # curr_srcs   =       1 # diodes     =       0 # bjts        =       0
  # jfets       =       0 # mosfets    =      14 # U elements  =       0
  # T elements  =       0 # W elements =       0 # B elements  =       0
  # S elements  =       0 # P elements =       0 # va device   =       0
  # vector_srcs =       0 # N elements =       0


  ******  Runtime Statistics (seconds)  ******

  analysis           time    # points   tot. iter  conv.iter
  op point           0.01           1          10
  transient          0.09       10001        1309         525 rev=        63
  readin             0.10
  errchk             0.02
  setup              0.00
  output             0.00


           peak memory used         51.09 megabytes
           total cpu time            0.23 seconds
           total elapsed time        0.27 seconds
           job started at     01:15:08 06/30/2018
           job ended   at     01:15:08 06/30/2018


  lic: Release hspice token(s) 
 lic: total license checkout elapse time:        0.04(s)
