 ****** HSPICE -- H-2013.03-SP2 64-BIT (Aug 26 2013) win64 ******               
  Copyright (C) 2013 Synopsys, Inc. All Rights Reserved.                        
  Unpublished-rights reserved under US copyright laws.
  This program is protected by law and is subject to the
  terms and conditions of the license agreement from Synopsys.
  Use of this program is your acceptance to be bound by the
  license agreement. HSPICE is the trademark of Synopsys, Inc.
  Input File: cmos_diffrence.sp                                                 
  Command line options: -i cmos_diffrence.sp -o cmos_diffrence.lis
  lic:  
  lic: FLEXlm: v10.9.8 
  lic: USER:   mohammad             HOSTNAME: mohammad 
  lic: HOSTID: "b4ae2b3bad62 a615ed2eb0cc b4ae2b3bad61 b6ae2b3ba960 b6ae2b3bac60
 " PID:      11472 
  lic: Using FLEXlm license file: 
  lic: C:\hspice_lic\synopsys.dat 
  lic: Checkout 1 hspice 
  lic: License/Maintenance for hspice will expire on 31-dec-2019/2019.12 
  lic: NODE LOCKED license on hostid "b4ae2b3bad62 a615ed2eb0cc b4ae2b3bad61 b6a
 e2b3ba960 b6ae2b3bac6
  lic:   
 Init: read install configuration file: C:\synopsys\Hspice_H-2013.03-SP2\meta.cfg
  **warning** (cmos_diffrence.sp:35) Syntax error while using .print/.probe, missing output variable. Line ignored.
 Model Name: pch.10  
 BSIM4 Model (Level 54)
    MOBMOD = 0
    BINUNIT = 2
    PARAMCHK = 1
    CAPMOD = 2
    DIOMOD = 1
    RDSMOD = 0
    TRNQSMOD = 0
    ACNQSMOD = 0
    RBODYMOD = 0
    RGATEMOD = 0
    PERMOD = 1
    GEOMOD = 0
    RGEOMOD = 0
    FNOIMOD = 1
    TNOIMOD = 0
    IGCMOD = 1
    IGBMOD = 1
    STIMOD = 1
    VBFWDMOD = 0
    VERSION =    4.4 
    TOXREF = 3e-009 
    TOXE = 2.5e-009 
    TOXP = 1.975e-009 
    TOXM = 2.5e-009 
    DTOX = 5.25e-010 
    EPSROX =    3.9 
    CDSC =      0 
    CDSCB =      0 
    CDSCD =      0 
    CIT = -0.0008977 
    NFACTOR = 0.4795 
    XJ = 1.7e-007 
    VSAT = 1.2e+005 
    A0 =   3.62 
    AGS =  3.255 
    A1 =      0 
    A2 =      1 
    AT = 2.25e+005 
    KETA = -0.2378 
    NSUB = 6e+016 
    NDEP = 1.72e+017 
    NSD = 1e+020 
    NGATE = 8e+019 
    GAMMA1 =      0 
    GAMMA2 =      0 
    VBX =      0 
    VBM =     -3 
    XT = 1.55e-007 
    K1 = 0.1623 
    KT1 = -0.2563 
    KT1L =      0 
    KT2 = -0.03875 
    K2 = 0.03535 
    K3 =  -0.58 
    K3B =    0.8 
    LPE0 = 2.805e-007 
    LPEB = 1e-007 
    DVTP0 =      0 
    DVTP1 =      0 
    W0 =      0 
    DVT0 =     10 
    DVT1 =   1.71 
    DVT2 = 0.0928 
    DVT0W =      0 
    DVT1W =      0 
    DVT2W =      0 
    DROUT =      0 
    DSUB =    0.5 
    VTH0 = -0.1785 
    EU =      1 
    UA = -8.293e-010 
    UA1 = 2.051e-009 
    UB = 2.654e-018 
    UB1 = -3.78e-018 
    UC = 6.611e-011 
    UC1 = -6.421e-011 
    U0 = 0.009495 
    UTE = -1.241 
    VOFF = -0.1134 
    VOFFL =      0 
    MINV =      0 
    FPROUT =   1000 
    PDITS =      0 
    PDITSD =      0 
    PDITSL =      0 
    DELTA =   0.02 
    RDSW =    210 
    RDSWMIN =      0 
    RDWMIN =      0 
    RSWMIN =      0 
    RDW =    100 
    RSW =    100 
    PRWG =      0 
    PRWB =      0 
    PRT =      0 
    ETA0 = 0.1517 
    ETAB = -0.009714 
    PCLM = 0.6429 
    PDIBLC1 =      0 
    PDIBLC2 =  0.005 
    PDIBLCB =      0 
    PSCBE1 = 9.264e+008 
    PSCBE2 = 1e-020 
    PVAG =      0 
    WR =      1 
    DWG =      0 
    DWB =      0 
    XW = 1e-008 
    XWREF = 1e-008 
    XL = -3.5e-008 
    XLREF = -3.5e-008 
    B0 =      0 
    B1 =      0 
    ALPHA0 =      0 
    ALPHA1 =   0.06 
    AGIDL = 9e-008 
    BGIDL = 2.3e+009 
    CGIDL =    0.5 
    PHIN =      0 
    EGIDL =   0.53 
    AIGC = 0.00606 
    BIGC = 0.0007625 
    CIGC = 1e-010 
    AIGSD = 0.004582 
    BIGSD =      0 
    CIGSD = 0.002267 
    AIGBACC = 0.01069 
    BIGBACC = 0.003132 
    CIGBACC = 0.1498 
    AIGBINV =   0.35 
    BIGBINV =   0.03 
    CIGBINV =  0.006 
    NIGC =      1 
    NIGBINV =      1 
    NIGBACC =  4.049 
    NTOX =      1 
    EIGBINV =    1.1 
    PIGCD =    2.3 
    POXEDGE =      1 
    XRCRG1 =     12 
    TNOIA =    1.5 
    TNOIB =    3.5 
    NTNOI =      1 
    XRCRG2 =      1 
    BETA0 =     12 
    IJTHDFWD =   0.01 
    IJTHSFWD =   0.01 
    IJTHDREV =   0.01 
    IJTHSREV =   0.01 
    XJBVD =      1 
    XJBVS =      1 
    BVD =     10 
    BVS =     10 
    VFB =     -1 
    GBMIN = 1e-012 
    RBDB =     50 
    RBPB =     50 
    RBSB =     50 
    RBPS =     50 
    RBPD =     50 
    CGSL = 1.896e-010 
    CGDL = 1.896e-010 
    CKAPPAS =    0.6 
    CKAPPAD =    0.6 
    CF = 1.38e-010 
    CLC = 1e-007 
    CLE =    0.6 
    DWC =      0 
    DLC = 1.525e-008 
    DLCIG = 2.5e-009 
    DWJ =      0 
    VFBCV =     -1 
    ACDE =    1.2 
    MOIN =  11.09 
    NOFF =  2.175 
    VOFFCV = -0.03885 
    DMCG = 9.25e-008 
    DMCI = 9.25e-008 
    DMDG =      0 
    DMCGT =      0 
    XGW =      0 
    XGL =      0 
    RSHG =    0.1 
    NGCON =      1 
    TCJ = 0.000854 
    TPB = 0.0019 
    TCJSW = 0.000357 
    TPBSW = 0.0019 
    TCJSWG = 0.00312 
    TPBSWG = 0.0019 
    SK0 =      0 
    SK1 =      0 
    SK2 =      0 
    SL = 2e-006 
    SW = 2e-006 
    K =      0 
    LCIT = 3.572e-010 
    LNFACTOR = 4.856e-008 
    LAT = -0.01058 
    LAGS = 7.702e-007 
    LKETA = 1.349e-008 
    LKT1 = -2.057e-009 
    LK2 = -2.698e-010 
    LVTH0 = 1.027e-009 
    LUA = 2.732e-017 
    LUA1 = -3.851e-017 
    LUB = 9.803e-027 
    LUB1 = -4.219e-026 
    LUC = 1.11e-017 
    LU0 = 6.85e-012 
    LUTE = -2.191e-008 
    LVOFF = -2.916e-009 
    LETA0 = -3.668e-009 
    LETAB = -2.057e-009 
    LPCLM = -2.657e-008 
    WCIT = 1.835e-009 
    WNFACTOR = -3.671e-007 
    WAT = 0.02394 
    WAGS = 2.624e-006 
    WKETA = -1.317e-008 
    WK2 = -2.346e-009 
    WVTH0 = 1.756e-009 
    WUA = 1.635e-016 
    WUA1 = -3.716e-016 
    WUB = 3.91e-026 
    WUB1 = -3.655e-025 
    WUC = 5.693e-017 
    WU0 = -9.688e-010 
    WUTE = -8.81e-008 
    WVOFF = -4.453e-009 
    WETA0 = -4.549e-008 
    WAIGSD = 7.821e-011 
    PCIT = -1.436e-016 
    PNFACTOR = 2.873e-014 
    PAT = -1.435e-009 
    PAGS = -5.248e-013 
    PKETA = 2.633e-015 
    PK2 = 4.692e-016 
    PVTH0 = 1.302e-015 
    PUA = -2.342e-023 
    PUA1 = 7.23e-023 
    PUB = -4.491e-032 
    PUB1 = 5.679e-032 
    PUC = -1.139e-023 
    PU0 = -1.577e-016 
    PUTE = 3.907e-014 
    PVOFF = 2.499e-015 
    PETA0 = 2.394e-015 
    TNOM =  298.1 
    CGSO = 2.568e-011 
    CGDO = 2.568e-011 
    CGBO =      0 
    XPART =      1 
    RSH =   9.68 
    JSS = 1.245e-007 
    JSWS = 3.77e-013 
    JSWGS = 3e-012 
    PBS =    0.8 
    MJS =   0.36 
    PBSWS =    0.8 
    MJSWS =   0.01 
    CJS = 0.00114 
    CJSWS = 6e-011 
    NJS =      1 
    PBSWGS =      1 
    MJSWGS =   0.99 
    CJSWGS = 3.6e-010 
    XTIS =      3 
    JSD = 1.245e-007 
    JSWD = 3.77e-013 
    JSWGD = 3e-012 
    PBD =    0.8 
    MJD =   0.36 
    PBSWD =    0.8 
    MJSWD =   0.01 
    CJD = 0.00114 
    CJSWD = 6e-011 
    NJD =      1 
    PBSWGD =      1 
    MJSWGD =   0.99 
    CJSWGD = 3.6e-010 
    XTID =      3 
    LMLT =      1 
    WMLT =      1 
    LINT = 2.5e-009 
    LL =      0 
    LLC =      0 
    LLN =      1 
    LW =      0 
    LWC =      0 
    LWN =      1 
    LWL =      0 
    LWLC =      0 
    LMIN = 1e-007 
    LMAX = 2.4e-007 
    WINT = 5e-009 
    WL =      0 
    WLC =      0 
    WLN =      1 
    WW =      0 
    WWC =      0 
    WWN =      1 
    WWL =      0 
    WWLC =      0 
    WMIN = 1.005e-006 
    WMAX = 1.001e-005 
    NOIA = 1.635e+042 
    NOIB = 7.241e+026 
    NOIC =   8.75 
    EM = 1.5e+008 
    EF =   1.19 
    AF =      1 
    KF =      0 
    TRS =      0 
    TRD =      0 
    TEMPMOD  =      0 
    LAMBDA   =      0 
    VTL      = 2e+005 m/s
    LC       = 5e-009 
    XN       =      3 
    LLAMBDA  =      0 
    LVTL     =      0 
    LXN      =      0 
    WLAMBDA  =      0 
    WVTL     =      0 
    WXN      =      0 
    PLAMBDA  =      0 
    PVTL     =      0 
    PXN      =      0 
    RNOIA    =  0.577 
    RNOIB    = 0.5164 
    SAREF(SA0) = 6.3e-007 m
    SBREF(SB0) = 6.3e-007 m
    WLOD     = 8e-007 m
    KU0      = 1.325e-007 1/m
    KVSAT    =   -0.9 
    KVTH0    = -1.5e-009 m
    TKU0     =    0.1 
    LLODKU0  =      1 
    WLODKU0  =      1 
    LLODVTH  =      2 
    WLODVTH  =      1 
    LKU0     = 1.33e-007 
    WKU0     = 6.5e-007 
    PKU0     =      0 
    LKVTH0   = -1.68e-015 
    WKVTH0   = 5e-007 
    PKVTH0   =      0 
    STK2     = 4e-010 
    LODK2    =      2 
    STETA0   =      0 
    LODETA0  =      1 
    LXRCRG1  =      0 
    WXRCRG1  =      0 
    PXRCRG1  =      0 
    LXRCRG2  =      0 
    WXRCRG2  =      0 
    PXRCRG2  =      0 
     *** UCB's BSIM4.4.0 new diode model is activated. ***
    *** UCB's Diode Model Parameters ***
    JTSS         =      0 
    JTSSWS       =      0 
    JTSSWGS      =      0 
    JTSD         =      0 
    JTSSWD       =      0 
    JTSSWGD      =      0 
    NJTS         =     20 
    NJTSSW       =     20 
    NJTSSWG      =     20 
    XTSS         =   0.02 
    XTSSWS       =   0.02 
    XTSSWGS      =   0.02 
    XTSD         =   0.02 
    XTSSWD       =   0.02 
    XTSSWGD      =   0.02 
    TNJTS        =      0 
    TNJTSSW      =      0 
    TNJTSSWG     =      0 
    VFBSDOFF     =      0 
    LVFBSDOFF    =      0 
    WVFBSDOFF    =      0 
    PVFBSDOFF    =      0 
    LINTNOI      =      0 
    VTSS         =     10 
    VTSD         =     10 
    VTSSWS       =     10 
    VTSSWD       =     10 
    VTSSWGS      =     10 
    VTSSWGD      =     10 
    TTDIOMOD     =      1 
 Model Name: nch.16  
 BSIM4 Model (Level 54)
    MOBMOD = 0
    BINUNIT = 2
    PARAMCHK = 1
    CAPMOD = 2
    DIOMOD = 1
    RDSMOD = 0
    TRNQSMOD = 0
    ACNQSMOD = 0
    RBODYMOD = 0
    RGATEMOD = 0
    PERMOD = 1
    GEOMOD = 0
    RGEOMOD = 0
    FNOIMOD = 1
    TNOIMOD = 0
    IGCMOD = 1
    IGBMOD = 1
    STIMOD = 1
    VBFWDMOD = 0
    VERSION =    4.4 
    TOXREF = 3e-009 
    TOXE = 2.33e-009 
    TOXP = 2.03e-009 
    TOXM = 2.33e-009 
    DTOX = 3e-010 
    EPSROX =    3.9 
    CDSC =      0 
    CDSCB =      0 
    CDSCD =      0 
    CIT = -0.0001229 
    NFACTOR =    0.5 
    XJ = 1.5e-007 
    VSAT = 1.14e+005 
    A0 =  2.375 
    AGS =   0.95 
    A1 =      0 
    A2 =      1 
    AT = 3.536e+004 
    KETA = -0.04414 
    NSUB = 6e+016 
    NDEP = 8.369e+017 
    NSD = 1e+020 
    NGATE = 4e+020 
    GAMMA1 =      0 
    GAMMA2 =      0 
    VBX =      0 
    VBM =     -3 
    XT = 1.55e-007 
    K1 =  0.312 
    KT1 = -0.2624 
    KT1L =      0 
    KT2 = -0.04464 
    K2 = -0.009286 
    K3 = -2.957 
    K3B =    1.2 
    LPE0 = 4.45e-008 
    LPEB =      0 
    DVTP0 = 4e-007 
    DVTP1 =      2 
    W0 = -5e-008 
    DVT0 =   13.9 
    DVT1 =   1.25 
    DVT2 =      0 
    DVT0W =      0 
    DVT1W =      0 
    DVT2W =      0 
    DROUT =      0 
    DSUB =    0.5 
    VTH0 =  0.228 
    EU =   1.67 
    UA = -6.284e-010 
    UA1 = 2.684e-009 
    UB = 9.691e-019 
    UB1 = -3.673e-018 
    UC = 1.285e-010 
    UC1 = -1.646e-010 
    U0 = 0.02973 
    UTE = -1.467 
    VOFF = -0.1288 
    VOFFL =      0 
    MINV =      0 
    FPROUT =    200 
    PDITS =      0 
    PDITSD =      0 
    PDITSL =      0 
    DELTA = 0.0075 
    RDSW =    140 
    RDSWMIN =      0 
    RDWMIN =      0 
    RSWMIN =      0 
    RDW =    100 
    RSW =    100 
    PRWG =      0 
    PRWB =      0 
    PRT =      0 
    ETA0 = 0.2301 
    ETAB =   -0.1 
    PCLM =   0.84 
    PDIBLC1 =      0 
    PDIBLC2 = 0.0001 
    PDIBLCB =      0 
    PSCBE1 = 9.264e+008 
    PSCBE2 = 1e-020 
    PVAG =    1.5 
    WR =      1 
    DWG =      0 
    DWB =      0 
    XW = 1e-008 
    XWREF = 1e-008 
    XL = -3.5e-008 
    XLREF = -3.5e-008 
    B0 =      0 
    B1 =      0 
    ALPHA0 =      0 
    ALPHA1 =   0.03 
    AGIDL = 9e-008 
    BGIDL = 2.3e+009 
    CGIDL =    0.5 
    PHIN =      0 
    EGIDL =   0.53 
    AIGC = 0.0103 
    BIGC = 0.001525 
    CIGC =      0 
    AIGSD = 0.00845 
    BIGSD = 0.0004021 
    CIGSD = 0.001463 
    AIGBACC = 0.01134 
    BIGBACC = 0.003249 
    CIGBACC = 0.1416 
    AIGBINV =   0.35 
    BIGBINV =   0.03 
    CIGBINV =  0.006 
    NIGC =      1 
    NIGBINV =      1 
    NIGBACC =   4.05 
    NTOX =      1 
    EIGBINV =    1.1 
    PIGCD =    2.3 
    POXEDGE =      1 
    XRCRG1 =     12 
    TNOIA =    1.5 
    TNOIB =    3.5 
    NTNOI =      1 
    XRCRG2 =      1 
    BETA0 =    8.7 
    IJTHDFWD =   0.01 
    IJTHSFWD =   0.01 
    IJTHDREV =   0.01 
    IJTHSREV =   0.01 
    XJBVD =      1 
    XJBVS =      1 
    BVD =     10 
    BVS =     10 
    VFB =     -1 
    GBMIN = 1e-012 
    RBDB =     50 
    RBPB =     50 
    RBSB =     50 
    RBPS =     50 
    RBPD =     50 
    CGSL = 6.514e-011 
    CGDL = 6.514e-011 
    CKAPPAS =    0.6 
    CKAPPAD =    0.6 
    CF = 1.38e-010 
    CLC = 1e-007 
    CLE =    0.6 
    DWC =      0 
    DLC = 1.172e-008 
    DLCIG = 2.5e-009 
    DWJ =      0 
    VFBCV =     -1 
    ACDE =    1.2 
    MOIN =   12.6 
    NOFF =  1.686 
    VOFFCV = -0.05472 
    DMCG = 9.25e-008 
    DMCI = 9.25e-008 
    DMDG =      0 
    DMCGT =      0 
    XGW =      0 
    XGL =      0 
    RSHG =    0.1 
    NGCON =      1 
    TCJ = 0.000732 
    TPB =  0.001 
    TCJSW = 0.000357 
    TPBSW = 0.0019 
    TCJSWG = 0.000357 
    TPBSWG = 0.0019 
    SK0 =      0 
    SK1 =      0 
    SK2 =      0 
    SL = 2e-006 
    SW = 2e-006 
    K =      0 
    LCIT = 2.246e-010 
    LAT = 0.001929 
    LKETA = 3.429e-009 
    LK1 = 2.22e-009 
    LKT1 = -1.62e-009 
    LK2 = 8.571e-010 
    LK3 = 1.543e-008 
    LUB = 1.642e-026 
    LUC = -6.562e-019 
    LUC1 = 6.025e-018 
    LUTE = 4.912e-009 
    LVOFF = -1.32e-009 
    WUB = 2.626e-026 
    WUC = -1.316e-017 
    WU0 = -4.701e-010 
    WUTE = 4.063e-008 
    WVOFF = -1.934e-009 
    WETA0 = -2.068e-008 
    PUB = 2.176e-033 
    PUC = 4.034e-025 
    PUTE = 8.059e-016 
    PVOFF = -6.447e-017 
    TNOM =  298.1 
    CGSO = 1.209e-010 
    CGDO = 1.209e-010 
    CGBO =      0 
    XPART =      1 
    RSH =   10.5 
    JSS = 1.77e-007 
    JSWS = 4.23e-013 
    JSWGS = 9e-012 
    PBS =    0.5 
    MJS =   0.25 
    PBSWS =    0.8 
    MJSWS =   0.01 
    CJS = 0.00098 
    CJSWS = 4e-011 
    NJS =      1 
    PBSWGS =   0.78 
    MJSWGS =   0.52 
    CJSWGS = 3.7e-010 
    XTIS =      3 
    JSD = 1.77e-007 
    JSWD = 4.23e-013 
    JSWGD = 9e-012 
    PBD =    0.5 
    MJD =   0.25 
    PBSWD =    0.8 
    MJSWD =   0.01 
    CJD = 0.00098 
    CJSWD = 4e-011 
    NJD =      1 
    PBSWGD =   0.78 
    MJSWGD =   0.52 
    CJSWGD = 3.7e-010 
    XTID =      3 
    LMLT =      1 
    WMLT =      1 
    LINT = 2.5e-009 
    LL =      0 
    LLC =      0 
    LLN =      1 
    LW =      0 
    LWC =      0 
    LWN =      1 
    LWL =      0 
    LWLC =      0 
    LMIN = 1e-007 
    LMAX = 2.4e-007 
    WINT = 6e-009 
    WL =      0 
    WLC =      0 
    WLN =      1 
    WW =      0 
    WWC =      0 
    WWN =      1 
    WWL =      0 
    WWLC =      0 
    WMIN = 2.45e-007 
    WMAX = 5.05e-007 
    NOIA = 4.293e+041 
    NOIB = 1.612e+024 
    NOIC =   8.75 
    EM = 1.192e+007 
    EF = 0.8841 
    AF =      1 
    KF =      0 
    TRS =      0 
    TRD =      0 
    TEMPMOD  =      0 
    LAMBDA   =      0 
    VTL      = 2e+005 m/s
    LC       = 5e-009 
    XN       =      3 
    LLAMBDA  =      0 
    LVTL     =      0 
    LXN      =      0 
    WLAMBDA  =      0 
    WVTL     =      0 
    WXN      =      0 
    PLAMBDA  =      0 
    PVTL     =      0 
    PXN      =      0 
    RNOIA    =  0.577 
    RNOIB    = 0.5164 
    SAREF(SA0) = 6.3e-007 m
    SBREF(SB0) = 6.3e-007 m
    WLOD     = 8e-007 m
    KU0      = -7.36e-008 1/m
    KVSAT    =    0.2 
    KVTH0    = 3.5e-009 m
    TKU0     =   0.01 
    LLODKU0  =      1 
    WLODKU0  =      1 
    LLODVTH  =      1 
    WLODVTH  =      1 
    LKU0     = 4.027e-007 
    WKU0     = 8e-007 
    PKU0     = -2e-013 
    LKVTH0   = -2.68e-011 
    WKVTH0   = 1.5e-006 
    PKVTH0   =      0 
    STK2     = 1.35e-009 
    LODK2    =    0.5 
    STETA0   =      0 
    LODETA0  =      1 
    LXRCRG1  =      0 
    WXRCRG1  =      0 
    PXRCRG1  =      0 
    LXRCRG2  =      0 
    WXRCRG2  =      0 
    PXRCRG2  =      0 
     *** UCB's BSIM4.4.0 new diode model is activated. ***
    *** UCB's Diode Model Parameters ***
    JTSS         =      0 
    JTSSWS       =      0 
    JTSSWGS      =      0 
    JTSD         =      0 
    JTSSWD       =      0 
    JTSSWGD      =      0 
    NJTS         =     20 
    NJTSSW       =     20 
    NJTSSWG      =     20 
    XTSS         =   0.02 
    XTSSWS       =   0.02 
    XTSSWGS      =   0.02 
    XTSD         =   0.02 
    XTSSWD       =   0.02 
    XTSSWGD      =   0.02 
    TNJTS        =      0 
    TNJTSSW      =      0 
    TNJTSSWG     =      0 
    VFBSDOFF     =      0 
    LVFBSDOFF    =      0 
    WVFBSDOFF    =      0 
    PVFBSDOFF    =      0 
    LINTNOI      =      0 
    VTSS         =     10 
    VTSD         =     10 
    VTSSWS       =     10 
    VTSSWD       =     10 
    VTSSWGS      =     10 
    VTSSWGD      =     10 
    TTDIOMOD     =      1 
 Model Name: nch.8  
 BSIM4 Model (Level 54)
    MOBMOD = 0
    BINUNIT = 2
    PARAMCHK = 1
    CAPMOD = 2
    DIOMOD = 1
    RDSMOD = 0
    TRNQSMOD = 0
    ACNQSMOD = 0
    RBODYMOD = 0
    RGATEMOD = 0
    PERMOD = 1
    GEOMOD = 0
    RGEOMOD = 0
    FNOIMOD = 1
    TNOIMOD = 0
    IGCMOD = 1
    IGBMOD = 1
    STIMOD = 1
    VBFWDMOD = 0
    VERSION =    4.4 
    TOXREF = 3e-009 
    TOXE = 2.33e-009 
    TOXP = 2.03e-009 
    TOXM = 2.33e-009 
    DTOX = 3e-010 
    EPSROX =    3.9 
    CDSC =      0 
    CDSCB =      0 
    CDSCD =      0 
    CIT = -0.0001229 
    NFACTOR =    0.5 
    XJ = 1.5e-007 
    VSAT = 1.14e+005 
    A0 =  2.375 
    AGS =   0.95 
    A1 =      0 
    A2 =      1 
    AT = 3.536e+004 
    KETA = -0.04414 
    NSUB = 6e+016 
    NDEP = 8.369e+017 
    NSD = 1e+020 
    NGATE = 4e+020 
    GAMMA1 =      0 
    GAMMA2 =      0 
    VBX =      0 
    VBM =     -3 
    XT = 1.55e-007 
    K1 = 0.3243 
    KT1 = -0.2624 
    KT1L =      0 
    KT2 = -0.04464 
    K2 = -0.01101 
    K3 = -2.957 
    K3B =    1.2 
    LPE0 = 4.45e-008 
    LPEB =      0 
    DVTP0 = 4e-007 
    DVTP1 =  1.571 
    W0 = -5e-008 
    DVT0 =   13.9 
    DVT1 =   1.25 
    DVT2 =      0 
    DVT0W =      0 
    DVT1W =      0 
    DVT2W =      0 
    DROUT =      0 
    DSUB =    0.5 
    VTH0 = 0.2274 
    EU =   1.67 
    UA = -6.284e-010 
    UA1 = 2.684e-009 
    UB = 2.292e-018 
    UB1 = -3.673e-018 
    UC = 2.411e-010 
    UC1 = -6.421e-011 
    U0 = 0.04546 
    UTE =  -1.55 
    VOFF = -0.1159 
    VOFFL =      0 
    MINV =      0 
    FPROUT =    200 
    PDITS =      0 
    PDITSD =      0 
    PDITSL =      0 
    DELTA = 0.0075 
    RDSW =    140 
    RDSWMIN =      0 
    RDWMIN =      0 
    RSWMIN =      0 
    RDW =    100 
    RSW =    100 
    PRWG =      0 
    PRWB =      0 
    PRT =      0 
    ETA0 = 0.2213 
    ETAB =   -0.1 
    PCLM =   0.84 
    PDIBLC1 =      0 
    PDIBLC2 = 1.429e-005 
    PDIBLCB =      0 
    PSCBE1 = 9.264e+008 
    PSCBE2 = 1e-020 
    PVAG =    1.5 
    WR =      1 
    DWG =      0 
    DWB =      0 
    XW = 1e-008 
    XWREF = 1e-008 
    XL = -3.5e-008 
    XLREF = -3.5e-008 
    B0 =      0 
    B1 =      0 
    ALPHA0 =      0 
    ALPHA1 =   0.03 
    AGIDL = 9e-008 
    BGIDL = 2.3e+009 
    CGIDL =    0.5 
    PHIN =      0 
    EGIDL =   0.53 
    AIGC = 0.01035 
    BIGC = 0.001525 
    CIGC =      0 
    AIGSD = 0.008355 
    BIGSD = 0.0004021 
    CIGSD = 0.001463 
    AIGBACC = 0.01134 
    BIGBACC = 0.003249 
    CIGBACC = 0.1416 
    AIGBINV =   0.35 
    BIGBINV =   0.03 
    CIGBINV =  0.006 
    NIGC =      1 
    NIGBINV =      1 
    NIGBACC =   4.05 
    NTOX =      1 
    EIGBINV =    1.1 
    PIGCD =    2.3 
    POXEDGE =      1 
    XRCRG1 =     12 
    TNOIA =    1.5 
    TNOIB =    3.5 
    NTNOI =      1 
    XRCRG2 =      1 
    BETA0 =    8.7 
    IJTHDFWD =   0.01 
    IJTHSFWD =   0.01 
    IJTHDREV =   0.01 
    IJTHSREV =   0.01 
    XJBVD =      1 
    XJBVS =      1 
    BVD =     10 
    BVS =     10 
    VFB =     -1 
    GBMIN = 1e-012 
    RBDB =     50 
    RBPB =     50 
    RBSB =     50 
    RBPS =     50 
    RBPD =     50 
    CGSL = 6.514e-011 
    CGDL = 6.514e-011 
    CKAPPAS =    0.6 
    CKAPPAD =    0.6 
    CF = 1.38e-010 
    CLC = 1e-007 
    CLE =    0.6 
    DWC =      0 
    DLC = 1.172e-008 
    DLCIG = 2.5e-009 
    DWJ =      0 
    VFBCV =     -1 
    ACDE =    1.2 
    MOIN =   12.6 
    NOFF =  1.686 
    VOFFCV = -0.05472 
    DMCG = 9.25e-008 
    DMCI = 9.25e-008 
    DMDG =      0 
    DMCGT =      0 
    XGW =      0 
    XGL =      0 
    RSHG =    0.1 
    NGCON =      1 
    TCJ = 0.000732 
    TPB =  0.001 
    TCJSW = 0.000357 
    TPBSW = 0.0019 
    TCJSWG = 0.000357 
    TPBSWG = 0.0019 
    SK0 =      0 
    SK1 =      0 
    SK2 =      0 
    SL = 2e-006 
    SW = 2e-006 
    K =      0 
    LCIT = 2.246e-010 
    LAT = 0.001929 
    LKETA = 3.429e-009 
    LK1 = -2.474e-010 
    LKT1 = -1.62e-009 
    LK2 = 1.203e-009 
    LK3 = 1.543e-008 
    LDVTP1 = 8.571e-008 
    LUB = -9.155e-027 
    LUC = -4.108e-019 
    LU0 = -5.144e-010 
    LUTE = 1.114e-008 
    LVOFF = -2.472e-009 
    LPDIBLC2 = 1.714e-011 
    LAIGC = -9.429e-012 
    LAIGSD = 5.716e-012 
    WK1 = -1.237e-008 
    WK2 = 3.453e-009 
    WVTH0 = 5.574e-009 
    WUB = -1.088e-024 
    WUC = -1.345e-016 
    WU0 = -1.23e-008 
    WUTE = 7.437e-008 
    WVOFF = -1.64e-008 
    WETA0 = -1.338e-008 
    WAIGSD = 9.555e-011 
    PK1 = 2.475e-015 
    PK2 = -6.907e-016 
    PUB = 4.185e-032 
    PUC = 4.109e-024 
    PU0 = 5.16e-016 
    PUTE = -1.72e-015 
    PVOFF = 1.319e-015 
    PAIGSD = -5.733e-018 
    TNOM =  298.1 
    CGSO = 1.209e-010 
    CGDO = 1.209e-010 
    CGBO =      0 
    XPART =      1 
    RSH =   10.5 
    JSS = 1.77e-007 
    JSWS = 4.23e-013 
    JSWGS = 9e-012 
    PBS =    0.5 
    MJS =   0.25 
    PBSWS =    0.8 
    MJSWS =   0.01 
    CJS = 0.00098 
    CJSWS = 4e-011 
    NJS =      1 
    PBSWGS =   0.78 
    MJSWGS =   0.52 
    CJSWGS = 3.7e-010 
    XTIS =      3 
    JSD = 1.77e-007 
    JSWD = 4.23e-013 
    JSWGD = 9e-012 
    PBD =    0.5 
    MJD =   0.25 
    PBSWD =    0.8 
    MJSWD =   0.01 
    CJD = 0.00098 
    CJSWD = 4e-011 
    NJD =      1 
    PBSWGD =   0.78 
    MJSWGD =   0.52 
    CJSWGD = 3.7e-010 
    XTID =      3 
    LMLT =      1 
    WMLT =      1 
    LINT = 2.5e-009 
    LL =      0 
    LLC =      0 
    LLN =      1 
    LW =      0 
    LWC =      0 
    LWN =      1 
    LWL =      0 
    LWLC =      0 
    LMIN = 1e-007 
    LMAX = 2.4e-007 
    WINT = 6e-009 
    WL =      0 
    WLC =      0 
    WLN =      1 
    WW =      0 
    WWC =      0 
    WWN =      1 
    WWL =      0 
    WWLC =      0 
    WMIN = 1.005e-006 
    WMAX = 1.001e-005 
    NOIA = 4.293e+041 
    NOIB = 1.612e+024 
    NOIC =   8.75 
    EM = 1.192e+007 
    EF = 0.8841 
    AF =      1 
    KF =      0 
    TRS =      0 
    TRD =      0 
    TEMPMOD  =      0 
    LAMBDA   =      0 
    VTL      = 2e+005 m/s
    LC       = 5e-009 
    XN       =      3 
    LLAMBDA  =      0 
    LVTL     =      0 
    LXN      =      0 
    WLAMBDA  =      0 
    WVTL     =      0 
    WXN      =      0 
    PLAMBDA  =      0 
    PVTL     =      0 
    PXN      =      0 
    RNOIA    =  0.577 
    RNOIB    = 0.5164 
    SAREF(SA0) = 6.3e-007 m
    SBREF(SB0) = 6.3e-007 m
    WLOD     = 8e-007 m
    KU0      = -7.36e-008 1/m
    KVSAT    =    0.2 
    KVTH0    = 3.5e-009 m
    TKU0     =   0.01 
    LLODKU0  =      1 
    WLODKU0  =      1 
    LLODVTH  =      1 
    WLODVTH  =      1 
    LKU0     = 4.027e-007 
    WKU0     = 8e-007 
    PKU0     = -2e-013 
    LKVTH0   = -2.68e-011 
    WKVTH0   = 1.5e-006 
    PKVTH0   =      0 
    STK2     = 1.35e-009 
    LODK2    =    0.5 
    STETA0   =      0 
    LODETA0  =      1 
    LXRCRG1  =      0 
    WXRCRG1  =      0 
    PXRCRG1  =      0 
    LXRCRG2  =      0 
    WXRCRG2  =      0 
    PXRCRG2  =      0 
     *** UCB's BSIM4.4.0 new diode model is activated. ***
    *** UCB's Diode Model Parameters ***
    JTSS         =      0 
    JTSSWS       =      0 
    JTSSWGS      =      0 
    JTSD         =      0 
    JTSSWD       =      0 
    JTSSWGD      =      0 
    NJTS         =     20 
    NJTSSW       =     20 
    NJTSSWG      =     20 
    XTSS         =   0.02 
    XTSSWS       =   0.02 
    XTSSWGS      =   0.02 
    XTSD         =   0.02 
    XTSSWD       =   0.02 
    XTSSWGD      =   0.02 
    TNJTS        =      0 
    TNJTSSW      =      0 
    TNJTSSWG     =      0 
    VFBSDOFF     =      0 
    LVFBSDOFF    =      0 
    WVFBSDOFF    =      0 
    PVFBSDOFF    =      0 
    LINTNOI      =      0 
    VTSS         =     10 
    VTSD         =     10 
    VTSSWS       =     10 
    VTSSWD       =     10 
    VTSSWGS      =     10 
    VTSSWGD      =     10 
    TTDIOMOD     =      1 
 Model Name: pch.20  
 BSIM4 Model (Level 54)
    MOBMOD = 0
    BINUNIT = 2
    PARAMCHK = 1
    CAPMOD = 2
    DIOMOD = 1
    RDSMOD = 0
    TRNQSMOD = 0
    ACNQSMOD = 0
    RBODYMOD = 0
    RGATEMOD = 0
    PERMOD = 1
    GEOMOD = 0
    RGEOMOD = 0
    FNOIMOD = 1
    TNOIMOD = 0
    IGCMOD = 1
    IGBMOD = 1
    STIMOD = 1
    VBFWDMOD = 0
    VERSION =    4.4 
    TOXREF = 3e-009 
    TOXE = 2.5e-009 
    TOXP = 1.975e-009 
    TOXM = 2.5e-009 
    DTOX = 5.25e-010 
    EPSROX =    3.9 
    CDSC =      0 
    CDSCB =      0 
    CDSCD =      0 
    CIT = -0.0002857 
    NFACTOR = -1.191 
    XJ = 1.7e-007 
    VSAT = 1.2e+005 
    A0 =   3.62 
    AGS =  5.742 
    A1 =      0 
    A2 =      1 
    AT = 2.83e+005 
    KETA = -0.2576 
    NSUB = 6e+016 
    NDEP = 1.72e+017 
    NSD = 1e+020 
    NGATE = 8e+019 
    GAMMA1 =      0 
    GAMMA2 =      0 
    VBX =      0 
    VBM =     -3 
    XT = 1.55e-007 
    K1 = 0.1623 
    KT1 = -0.2258 
    KT1L =      0 
    KT2 = -0.03875 
    K2 = 0.03015 
    K3 =  -0.58 
    K3B =    0.8 
    LPE0 = 2.805e-007 
    LPEB = 1e-007 
    DVTP0 =      0 
    DVTP1 =      0 
    W0 =      0 
    DVT0 =     10 
    DVT1 =   1.71 
    DVT2 = 0.0928 
    DVT0W =      0 
    DVT1W =      0 
    DVT2W =      0 
    DROUT =      0 
    DSUB =    0.5 
    VTH0 = -0.1873 
    EU =      1 
    UA = -4.197e-010 
    UA1 = 6.229e-010 
    UB = 2.527e-018 
    UB1 = -3.63e-018 
    UC = 1.202e-010 
    UC1 = -6.421e-011 
    U0 = 0.008267 
    UTE = -1.609 
    VOFF = -0.1416 
    VOFFL =      0 
    MINV =      0 
    FPROUT =   1000 
    PDITS =      0 
    PDITSD =      0 
    PDITSL =      0 
    DELTA =   0.02 
    RDSW =    210 
    RDSWMIN =      0 
    RDWMIN =      0 
    RSWMIN =      0 
    RDW =    100 
    RSW =    100 
    PRWG =      0 
    PRWB =      0 
    PRT =      0 
    ETA0 = 0.06098 
    ETAB = -0.01537 
    PCLM = 0.6429 
    PDIBLC1 =      0 
    PDIBLC2 =  0.005 
    PDIBLCB =      0 
    PSCBE1 = 9.264e+008 
    PSCBE2 = 1e-020 
    PVAG =      0 
    WR =      1 
    DWG =      0 
    DWB =      0 
    XW = 1e-008 
    XWREF = 1e-008 
    XL = -3.5e-008 
    XLREF = -3.5e-008 
    B0 =      0 
    B1 =      0 
    ALPHA0 =      0 
    ALPHA1 =   0.06 
    AGIDL = 9e-008 
    BGIDL = 2.3e+009 
    CGIDL =    0.5 
    PHIN =      0 
    EGIDL =   0.53 
    AIGC = 0.00606 
    BIGC = 0.0007625 
    CIGC = 1e-010 
    AIGSD = 0.004566 
    BIGSD =      0 
    CIGSD = 0.002267 
    AIGBACC = 0.01069 
    BIGBACC = 0.003132 
    CIGBACC = 0.1498 
    AIGBINV =   0.35 
    BIGBINV =   0.03 
    CIGBINV =  0.006 
    NIGC =      1 
    NIGBINV =      1 
    NIGBACC =  4.049 
    NTOX =      1 
    EIGBINV =    1.1 
    PIGCD =    2.3 
    POXEDGE =      1 
    XRCRG1 =     12 
    TNOIA =    1.5 
    TNOIB =    3.5 
    NTNOI =      1 
    XRCRG2 =      1 
    BETA0 =     12 
    IJTHDFWD =   0.01 
    IJTHSFWD =   0.01 
    IJTHDREV =   0.01 
    IJTHSREV =   0.01 
    XJBVD =      1 
    XJBVS =      1 
    BVD =     10 
    BVS =     10 
    VFB =     -1 
    GBMIN = 1e-012 
    RBDB =     50 
    RBPB =     50 
    RBSB =     50 
    RBPS =     50 
    RBPD =     50 
    CGSL = 1.896e-010 
    CGDL = 1.896e-010 
    CKAPPAS =    0.6 
    CKAPPAD =    0.6 
    CF = 1.38e-010 
    CLC = 1e-007 
    CLE =    0.6 
    DWC =      0 
    DLC = 1.525e-008 
    DLCIG = 2.5e-009 
    DWJ =      0 
    VFBCV =     -1 
    ACDE =    1.2 
    MOIN =  11.09 
    NOFF =  2.175 
    VOFFCV = -0.03885 
    DMCG = 9.25e-008 
    DMCI = 9.25e-008 
    DMDG =      0 
    DMCGT =      0 
    XGW =      0 
    XGL =      0 
    RSHG =    0.1 
    NGCON =      1 
    TCJ = 0.000854 
    TPB = 0.0019 
    TCJSW = 0.000357 
    TPBSW = 0.0019 
    TCJSWG = 0.00312 
    TPBSWG = 0.0019 
    SK0 =      0 
    SK1 =      0 
    SK2 =      0 
    SL = 2e-006 
    SW = 2e-006 
    K =      0 
    LCIT = 2.571e-010 
    LNFACTOR = 2.064e-007 
    LAT = -0.01381 
    LAGS = 2.728e-007 
    LKETA = 1.744e-008 
    LKT1 = -8.17e-009 
    LK2 = 8.66e-010 
    LVTH0 = 4.038e-009 
    LUA = -4.216e-017 
    LUA1 = 1.188e-017 
    LUB = -2.588e-026 
    LUB1 = 1.305e-025 
    LUC = 1.469e-018 
    LU0 = -2.255e-010 
    LUTE = 2.963e-008 
    LVOFF = 2.359e-009 
    LETA0 = 1.69e-009 
    LETAB = -9.257e-010 
    LPCLM = -2.657e-008 
    WNFACTOR = 6.594e-007 
    WAT = -0.002993 
    WAGS = -1.02e-006 
    WKETA = 3.365e-009 
    WKT1 = -9.137e-009 
    WK2 = -2.583e-010 
    WVTH0 = 4.079e-009 
    WUA = -2.311e-017 
    WUA1 = 3.088e-016 
    WUB = -1.152e-025 
    WUB1 = -1.7e-026 
    WUC = -1.624e-017 
    WU0 = -4.079e-012 
    WUTE = 1.254e-007 
    WVOFF = 7.791e-009 
    WETA0 = -3.739e-009 
    WAIGSD = 6.71e-011 
    PNFACTOR = -6.526e-014 
    PAT = 1.799e-010 
    PAGS = 2.039e-013 
    PKETA = -6.73e-016 
    PKT1 = 1.827e-015 
    PK2 = -1.387e-016 
    PVTH0 = -7.016e-016 
    PUA = 4.307e-024 
    PUA1 = -2.855e-025 
    PUB = 8.566e-033 
    PUB1 = -3.324e-032 
    PUC = 1.937e-025 
    PU0 = 9.381e-018 
    PUTE = -8.035e-015 
    PVOFF = -1.187e-015 
    PETA0 = -2.039e-016 
    TNOM =  298.1 
    CGSO = 2.568e-011 
    CGDO = 2.568e-011 
    CGBO =      0 
    XPART =      1 
    RSH =   9.68 
    JSS = 1.245e-007 
    JSWS = 3.77e-013 
    JSWGS = 3e-012 
    PBS =    0.8 
    MJS =   0.36 
    PBSWS =    0.8 
    MJSWS =   0.01 
    CJS = 0.00114 
    CJSWS = 6e-011 
    NJS =      1 
    PBSWGS =      1 
    MJSWGS =   0.99 
    CJSWGS = 3.6e-010 
    XTIS =      3 
    JSD = 1.245e-007 
    JSWD = 3.77e-013 
    JSWGD = 3e-012 
    PBD =    0.8 
    MJD =   0.36 
    PBSWD =    0.8 
    MJSWD =   0.01 
    CJD = 0.00114 
    CJSWD = 6e-011 
    NJD =      1 
    PBSWGD =      1 
    MJSWGD =   0.99 
    CJSWGD = 3.6e-010 
    XTID =      3 
    LMLT =      1 
    WMLT =      1 
    LINT = 2.5e-009 
    LL =      0 
    LLC =      0 
    LLN =      1 
    LW =      0 
    LWC =      0 
    LWN =      1 
    LWL =      0 
    LWLC =      0 
    LMIN = 1e-007 
    LMAX = 2.4e-007 
    WINT = 5e-009 
    WL =      0 
    WLC =      0 
    WLN =      1 
    WW =      0 
    WWC =      0 
    WWN =      1 
    WWL =      0 
    WWLC =      0 
    WMIN = 2.45e-007 
    WMAX = 5.05e-007 
    NOIA = 1.635e+042 
    NOIB = 7.241e+026 
    NOIC =   8.75 
    EM = 1.5e+008 
    EF =   1.19 
    AF =      1 
    KF =      0 
    TRS =      0 
    TRD =      0 
    TEMPMOD  =      0 
    LAMBDA   =      0 
    VTL      = 2e+005 m/s
    LC       = 5e-009 
    XN       =      3 
    LLAMBDA  =      0 
    LVTL     =      0 
    LXN      =      0 
    WLAMBDA  =      0 
    WVTL     =      0 
    WXN      =      0 
    PLAMBDA  =      0 
    PVTL     =      0 
    PXN      =      0 
    RNOIA    =  0.577 
    RNOIB    = 0.5164 
    SAREF(SA0) = 6.3e-007 m
    SBREF(SB0) = 6.3e-007 m
    WLOD     = 8e-007 m
    KU0      = 1.325e-007 1/m
    KVSAT    =   -0.9 
    KVTH0    = -1.5e-009 m
    TKU0     =    0.1 
    LLODKU0  =      1 
    WLODKU0  =      1 
    LLODVTH  =      2 
    WLODVTH  =      1 
    LKU0     = 1.33e-007 
    WKU0     = 6.5e-007 
    PKU0     =      0 
    LKVTH0   = -1.68e-015 
    WKVTH0   = 5e-007 
    PKVTH0   =      0 
    STK2     = 4e-010 
    LODK2    =      2 
    STETA0   =      0 
    LODETA0  =      1 
    LXRCRG1  =      0 
    WXRCRG1  =      0 
    PXRCRG1  =      0 
    LXRCRG2  =      0 
    WXRCRG2  =      0 
    PXRCRG2  =      0 
     *** UCB's BSIM4.4.0 new diode model is activated. ***
    *** UCB's Diode Model Parameters ***
    JTSS         =      0 
    JTSSWS       =      0 
    JTSSWGS      =      0 
    JTSD         =      0 
    JTSSWD       =      0 
    JTSSWGD      =      0 
    NJTS         =     20 
    NJTSSW       =     20 
    NJTSSWG      =     20 
    XTSS         =   0.02 
    XTSSWS       =   0.02 
    XTSSWGS      =   0.02 
    XTSD         =   0.02 
    XTSSWD       =   0.02 
    XTSSWGD      =   0.02 
    TNJTS        =      0 
    TNJTSSW      =      0 
    TNJTSSWG     =      0 
    VFBSDOFF     =      0 
    LVFBSDOFF    =      0 
    WVFBSDOFF    =      0 
    PVFBSDOFF    =      0 
    LINTNOI      =      0 
    VTSS         =     10 
    VTSD         =     10 
    VTSSWS       =     10 
    VTSSWD       =     10 
    VTSSWGS      =     10 
    VTSSWGD      =     10 
    TTDIOMOD     =      1 
  
      
 **info** set option symb=1 internally to help for convergence.
 *****************************************************************
 ******  option summary
 ******
 runlvl  = 3         bypass  = 2         
1****** HSPICE -- H-2013.03-SP2 64-BIT (Aug 26 2013) win64 ******               
 ******  
 ac	simulation

  ******  operating point information tnom=  25.000 temp=  25.000 *****
 ***** operating point status is all       simulation time is     0.     
    node    =voltage      node    =voltage      node    =voltage

 +0:a       = 748.0293m 0:b       = 440.0920m 0:c       = 440.0892m
 +0:d       = 565.6460m 0:f       = 583.1529m 0:hi      =   1.0000 
 +0:k       = 300.0000m 0:lo      =   0.      0:vin+    = 300.0000m
 +0:vin-    = 300.0000m 0:vout    = 505.5933m


 **** voltage sources

 subckt                                                         
 element  0:vdd      0:vinac    0:vindc1   0:vindc2   0:vss     
  volts      1.0000     0.       300.0000m  300.0000m    0.     
  current -394.7505u  526.3590p  526.3590p  502.3161p  392.2505u
  power    394.7505u    0.      -157.9077p -150.6948p    0.     

     total voltage source power dissipation=  394.7502u       watts



 **** current sources

 subckt             
 element  0:ib      
  volts    583.1529m
  current    2.5000u
  power     -1.4579u


     total current source power dissipation=  -1.4579u       watts


 **** mosfets


 subckt                                                                    
 element  0:m1       0:m2       0:m3       0:m4       0:m5       0:m6      
 model    0:pch.10   0:pch.10   0:pch.10   0:pch.10   0:nch.16   0:nch.16  
 region     Saturati   Saturati   Saturati   Saturati   Saturati   Saturati
  id       -41.9163u  -41.9164u  -38.0721u  -34.3136u   21.8373u   21.8366u
  ibs      251.9826f  251.9826f  251.9826f  251.9826f    0.         0.     
  ibd      559.9199f  559.9228f  494.4187f  434.3660f -440.0965f -440.0937f
  vgs     -448.0293m -448.0293m -448.0293m -448.0293m  440.0920m  440.0892m
  vds     -307.9373m -307.9401m -242.4360m -182.3834m  440.0920m  440.0892m
  vbs      251.9707m  251.9707m  251.9707m  251.9707m    0.         0.     
  vth     -348.5423m -348.5421m -352.3296m -355.8018m  357.3600m  357.3601m
  vdsat   -121.0839m -121.0840m -118.6000m -116.3477m  101.7314m  101.7300m
  vod      -99.4871m  -99.4872m  -95.6998m  -92.2275m   82.7320m   82.7290m
  beta       6.9681m    6.9681m    6.9536m    6.9402m    3.5209m    3.5209m
  gam eff  162.3000m  162.3000m  162.3000m  162.3000m  349.0000m  349.0000m
  gm       533.4235u  533.4252u  492.6172u  446.9517u  241.6569u  241.6520u
  gds       58.3315u   58.3315u   59.6227u   67.5474u   25.7998u   25.7993u
  gmb       73.6920u   73.6922u   68.9665u   63.3591u   33.6062u   33.6056u
  cdtot      2.8429f    2.8429f    2.9043f    2.9655f  384.7082a  384.7085a
  cgtot      3.4742f    3.4742f    3.4741f    3.4705f  499.7254a  499.7242a
  cstot      4.0412f    4.0412f    4.0307f    4.0214f  615.2720a  615.2708a
  cbtot      3.6228f    3.6228f    3.6689f    3.7150f  566.8920a  566.8923a
  cgs        2.3625f    2.3625f    2.3493f    2.3365f  344.4848a  344.4834a
  cgd        1.1390f    1.1390f    1.1523f    1.1616f  135.8248a  135.8248a



 subckt                                                                    
 element  0:m7       0:m8       0:m9       0:m10      0:m11      0:m12     
 model    0:nch.16   0:nch.16   0:nch.8    0:nch.8    0:pch.10   0:pch.10  
 region     Saturati   Saturati   Saturati   Saturati   Saturati   Saturati
  id        20.0787u   20.0793u  138.9784u  169.4387u -104.6638u -131.3666u
  ibs        0.         0.         0.         0.         0.         0.     
  ibd     -440.0962f -440.0933f -565.6677f   -1.0112p  434.3733f  840.5242f
  vgs      440.0892m  440.0920m  440.0920m  440.0892m -434.3540m -434.3540m
  vds      440.0920m  440.0892m  565.6460m  505.5933m -434.3540m -494.4067m
  vbs        0.         0.         0.         0.         0.         0.     
  vth      356.2599m  356.2601m  351.4560m  310.6066m -309.8792m -277.7842m
  vdsat    102.3961m  102.3973m  101.7082m  131.1789m -136.9071m -161.9113m
  vod       83.8293m   83.8320m   88.6360m  129.4826m -124.4748m -156.5698m
  beta       3.1902m    3.1902m   20.4103m   17.0170m   11.7608m   10.1159m
  gam eff  349.0000m  349.0000m  332.9441m  324.1547m  162.3000m  162.3000m
  gm       220.8746u  220.8779u    1.4374m    1.7399m    1.1569m    1.3211m
  gds       23.4189u   23.4195u  144.2432u   72.9708u  111.8565u   54.3809u
  gmb       30.5862u   30.5867u  192.3991u  279.0628u  167.1762u  192.1944u
  cdtot    352.5397a  352.5400a    1.7873f    3.6406f    4.6497f    7.6982f
  cgtot    456.6675a  456.6686a    2.4670f   10.0445f    5.6783f   16.4845f
  cstot    563.2453a  563.2463a    2.9969f   10.7449f    7.1619f   18.4141f
  cbtot    520.1550a  520.1551a    2.6415f    6.2395f    6.5233f   11.4621f
  cgs      314.7672a  314.7684a    1.7207f    8.3337f    3.9579f   13.9710f
  cgd      124.1374a  124.1374a  653.8075a    1.3444f    1.7651f    2.9768f



 subckt                        
 element  0:m13      0:m14     
 model    0:pch.20   0:pch.20  
 region     Saturati   Saturati
  id      -156.2194u   -2.4992u
  ibs        0.         0.     
  ibd       17.3860p  416.8481f
  vgs     -416.8471m -416.8471m
  vds     -251.9707m -416.8471m
  vbs        0.         0.     
  vth     -297.1798m -295.1200m
  vdsat   -137.1830m -138.7249m
  vod     -119.6673m -121.7271m
  beta      20.0696m  291.0155u
  gam eff  162.3000m  162.3000m
  gm         1.9062m   30.2696u
  gds      116.1346u    1.3069u
  gmb      282.5674u    4.4523u
  cdtot     18.0944f  245.2843a
  cgtot     24.3588f  349.3367a
  cstot     29.7502f  431.8606a
  cbtot     25.8202f  362.4848a
  cgs       18.4372f  267.9971a
  cgd        6.3211f   87.0709a



 ******  
 ac	simulation

  ******  ac analysis tnom=  25.000 temp=  25.000 *****
 gain=  30.7126 
 unity_gain= 927.6271x
 phase_margin=  62.9714 

          ***** job concluded
1****** HSPICE -- H-2013.03-SP2 64-BIT (Aug 26 2013) win64 ******               
 ******  
 ac	simulation

  ******  job statistics summary tnom=  25.000 temp=  25.000 *****

  ******  HSPICE Threads Information  ******

  Command Line Threads Count :     1
  Available CPU Count        :     4
  Actual Threads Count       :     1


  ******  Circuit Statistics  ******
  # nodes       =      12 # elements   =      21
  # resistors   =       0 # capacitors =       1 # inductors   =       0
  # mutual_inds =       0 # vccs       =       0 # vcvs        =       0
  # cccs        =       0 # ccvs       =       0 # volt_srcs   =       5
  # curr_srcs   =       1 # diodes     =       0 # bjts        =       0
  # jfets       =       0 # mosfets    =      14 # U elements  =       0
  # T elements  =       0 # W elements =       0 # B elements  =       0
  # S elements  =       0 # P elements =       0 # va device   =       0
  # vector_srcs =       0 # N elements =       0


  ******  Runtime Statistics (seconds)  ******

  analysis           time    # points   tot. iter  conv.iter
  op point           0.02           1          10
  ac analysis        0.72        4851        4851
  readin             0.10
  errchk             0.02
  setup              0.00
  output             0.00


           peak memory used         51.13 megabytes
           total cpu time            0.86 seconds
           total elapsed time        0.92 seconds
           job started at     01:14:26 06/30/2018
           job ended   at     01:14:27 06/30/2018


  lic: Release hspice token(s) 
 lic: total license checkout elapse time:        0.06(s)
